<additional>
    <vTypeDistribution id="DEFAULT_VEHTYPE">
        <vType id="defaultType" accel="2.6" decel="4.5" sigma="0.5" length="5" minGap="2.5" maxSpeed="16.67" color="1,1,0" probability="0.7"/>
        <vType id="evType" accel="2.6" decel="4.5" sigma="0.5" length="5" minGap="2.5" maxSpeed="33.33" mass="2100" color="0,1,0" probability="0.3">
            <param key="has.battery.device" value="true"/>
            <param key="device.battery.capacity" value="40000"/>
            <param key="device.battery.maximumBatteryCapacity" value="40000"/>
            <param key="maximumPower" value="150000"/>
            <param key="frontSurfaceArea" value="2.6"/>
            <param key="airDragCoefficient" value="0.35"/>
            <param key="rotatingMass" value="40"/>
            <param key="radialDragCoefficient" value="0.1"/>
            <param key="rollDragCoefficient" value="0.01"/>
            <param key="constantPowerIntake" value="300"/>
            <param key="propulsionEfficiency" value="0.98"/>
            <param key="recuperationEfficiency" value="0.6"/>
        </vType>
    </vTypeDistribution>

    <chargingStation id="cs_guney" lane="561590398#0_0" startPos="2" endPos="10" power="50000" efficiency="0.95"/>
    <chargingStation id="cs_kuzey" lane="837903918#0_0" startPos="2" endPos="10" power="50000" efficiency="0.95"/>
    <chargingStation id="cs_merkez" lane="827491212#3_0" startPos="2" endPos="12" power="22000" efficiency="0.90"/>
    <chargingStation id="cs_dogu" lane="1064645867_0" startPos="2" endPos="10" power="22000" efficiency="0.90"/>
    <chargingStation id="cs_bati" lane="329581607#1_0" startPos="2" endPos="10" power="22000" efficiency="0.90"/>
</additional>