[General]
cmdenv-express-mode = true
cmdenv-autoflush = true
image-path = ../../images
network = lte.simulations.cars.Highway
*.configurator.config = xmldoc("demo.xml")

debug-on-errors = false
*.veinsManager.ignoreGuiCommands = true
cmdenv-stop-batch-on-error = false

##########################################################
#            Simulation parameters                       #
##########################################################
debug-on-errors = false
print-undisposed = false
sim-time-limit = 7200s

**.scalar-recording = false
**.vector-recording = false
**.coreDebug = false
**.routingRecorder.enabled = false
**.tolerateMaxDistViolation = true

# ── eNodeB Fiziksel Koordinatlar (Luxembourg: 13614x11455m) ──
# 6 eNodeB — 2x3 grid, her biri ~2.3km yaricap kapsama
*.eNodeB1.mobility.initialX = 6500m
*.eNodeB1.mobility.initialY = 6000m
*.eNodeB1.mobility.initialZ = 30m
*.eNodeB2.mobility.initialX = 7500m
*.eNodeB2.mobility.initialY = 5500m
*.eNodeB2.mobility.initialZ = 30m
*.eNodeB3.mobility.initialX = 6000m
*.eNodeB3.mobility.initialY = 7500m
*.eNodeB3.mobility.initialZ = 30m
*.eNodeB4.mobility.initialX = 8000m
*.eNodeB4.mobility.initialY = 6500m
*.eNodeB4.mobility.initialZ = 30m
*.eNodeB5.mobility.initialX = 8500m
*.eNodeB5.mobility.initialY = 3500m
*.eNodeB5.mobility.initialZ = 30m
*.eNodeB6.mobility.initialX = 4000m
*.eNodeB6.mobility.initialY = 6800m
*.eNodeB6.mobility.initialZ = 30m
*.eNodeB7.mobility.initialX = 3000m
*.eNodeB7.mobility.initialY = 7500m
*.eNodeB7.mobility.initialZ = 30m
*.eNodeB8.mobility.initialX = 7500m
*.eNodeB8.mobility.initialY = 8500m
*.eNodeB8.mobility.initialZ = 30m
*.eNodeB9.mobility.initialX = 10000m
*.eNodeB9.mobility.initialY = 3000m
*.eNodeB9.mobility.initialZ = 30m

*.eNodeB2.mobility.initialX = 9000m
*.eNodeB2.mobility.initialY = 2800m
*.eNodeB2.mobility.initialZ = 30m

*.eNodeB3.mobility.initialX = 4500m
*.eNodeB3.mobility.initialY = 5700m
*.eNodeB3.mobility.initialZ = 30m

*.eNodeB4.mobility.initialX = 9000m
*.eNodeB4.mobility.initialY = 5700m
*.eNodeB4.mobility.initialZ = 30m

*.eNodeB*.mobilityType = "StationaryMobility"

*.playgroundSizeX = 13700m
*.playgroundSizeY = 11600m
*.playgroundSizeZ = 50m
*.annotations.draw = true

##########################################################
#            VeinsManager parameters                     #
##########################################################
*.veinsManager.host = "localhost"
*.veinsManager.port = 9999
*.veinsManager.autoShutdown = false
*.veinsManager.moduleType = "lte.corenetwork.nodes.cars.Car"
*.veinsManager.moduleName = "car"
*.veinsManager.launchConfig = xmldoc("lust.launchd.xml")
*.veinsManager.drawRoads = false
*.veinsManager.updateInterval = 1s
*.veinsManager.firstStepAt = 0.1s

##########################################################
#                      Mobility                          #
##########################################################
*.car[*].mobilityType = "VeinsInetMobility"
*.car[*].ipv4.configurator.addressBase = "10.0.0.0"
*.car[*].ipv4.configurator.netmask = "255.0.0.0"

##########################################################
#              LTE specific parameters                   #
##########################################################
*.car[*].lteNic.phy.dynamicCellAssociation = true

**.car[*].masterId = 1
**.car[*].macCellId = 1

**.eNodeB1.macCellId = 1
**.eNodeB1.macNodeId = 1
**.eNodeB2.macCellId = 2
**.eNodeB2.macNodeId = 2
**.eNodeB3.macCellId = 3
**.eNodeB3.macNodeId = 3
**.eNodeB4.macCellId = 4
**.eNodeB4.macNodeId = 4
**.eNodeB5.macCellId = 5
**.eNodeB5.macNodeId = 5
**.eNodeB6.macCellId = 6
**.eNodeB6.macNodeId = 6
**.eNodeB7.macCellId = 7
**.eNodeB7.macNodeId = 7
**.eNodeB8.macCellId = 8
**.eNodeB8.macNodeId = 8
**.eNodeB9.macCellId = 9
**.eNodeB9.macNodeId = 9
**.eNodeBCount = 9

**.rbAllocationType = "localized"
**.feedbackType = "ALLBANDS"
**.feedbackGeneratorType = "IDEAL"
**.maxHarqRtx = 2
**.numUe = ${numUEs=15000}

**.cellInfo.ruRange = 50
**.cellInfo.ruTxPower = "50,50,50;"
**.cellInfo.antennaCws = "2;"
**.cellInfo.numRbDl = 100
**.cellInfo.numRbUl = 100
**.numBands = 100
**.fbDelay = 1

*.car[*].lteNic.phy.enableHandover = true
*.eNodeB*.lteNic.phy.enableHandover = true
*.eNodeB*.lteNic.phy.broadcastMessageInterval = 2s
*.eNodeB*.x2App[*].server.localPort = 5000 + ancestorIndex(1)
*.eNodeB1.numX2Apps = 6
*.eNodeB2.numX2Apps = 5
*.eNodeB3.numX2Apps = 6
*.eNodeB4.numX2Apps = 5
*.eNodeB5.numX2Apps = 4
*.eNodeB6.numX2Apps = 3
*.eNodeB7.numX2Apps = 2
*.eNodeB8.numX2Apps = 4
*.eNodeB9.numX2Apps = 1
*.eNodeB1.x2App[0].client.connectAddress = "eNodeB2%x2ppp0"
*.eNodeB1.x2App[1].client.connectAddress = "eNodeB3%x2ppp0"
*.eNodeB1.x2App[2].client.connectAddress = "eNodeB4%x2ppp0"
*.eNodeB1.x2App[3].client.connectAddress = "eNodeB5%x2ppp0"
*.eNodeB1.x2App[4].client.connectAddress = "eNodeB6%x2ppp0"
*.eNodeB1.x2App[5].client.connectAddress = "eNodeB8%x2ppp0"
*.eNodeB2.x2App[0].client.connectAddress = "eNodeB1%x2ppp0"
*.eNodeB2.x2App[1].client.connectAddress = "eNodeB3%x2ppp1"
*.eNodeB2.x2App[2].client.connectAddress = "eNodeB4%x2ppp1"
*.eNodeB2.x2App[3].client.connectAddress = "eNodeB5%x2ppp1"
*.eNodeB2.x2App[4].client.connectAddress = "eNodeB8%x2ppp1"
*.eNodeB3.x2App[0].client.connectAddress = "eNodeB1%x2ppp1"
*.eNodeB3.x2App[1].client.connectAddress = "eNodeB2%x2ppp1"
*.eNodeB3.x2App[2].client.connectAddress = "eNodeB4%x2ppp2"
*.eNodeB3.x2App[3].client.connectAddress = "eNodeB6%x2ppp1"
*.eNodeB3.x2App[4].client.connectAddress = "eNodeB7%x2ppp0"
*.eNodeB3.x2App[5].client.connectAddress = "eNodeB8%x2ppp2"
*.eNodeB4.x2App[0].client.connectAddress = "eNodeB1%x2ppp2"
*.eNodeB4.x2App[1].client.connectAddress = "eNodeB2%x2ppp2"
*.eNodeB4.x2App[2].client.connectAddress = "eNodeB3%x2ppp2"
*.eNodeB4.x2App[3].client.connectAddress = "eNodeB5%x2ppp2"
*.eNodeB4.x2App[4].client.connectAddress = "eNodeB8%x2ppp3"
*.eNodeB5.x2App[0].client.connectAddress = "eNodeB1%x2ppp3"
*.eNodeB5.x2App[1].client.connectAddress = "eNodeB2%x2ppp3"
*.eNodeB5.x2App[2].client.connectAddress = "eNodeB4%x2ppp3"
*.eNodeB5.x2App[3].client.connectAddress = "eNodeB9%x2ppp0"
*.eNodeB6.x2App[0].client.connectAddress = "eNodeB1%x2ppp4"
*.eNodeB6.x2App[1].client.connectAddress = "eNodeB3%x2ppp3"
*.eNodeB6.x2App[2].client.connectAddress = "eNodeB7%x2ppp1"
*.eNodeB7.x2App[0].client.connectAddress = "eNodeB3%x2ppp4"
*.eNodeB7.x2App[1].client.connectAddress = "eNodeB6%x2ppp2"
*.eNodeB8.x2App[0].client.connectAddress = "eNodeB1%x2ppp5"
*.eNodeB8.x2App[1].client.connectAddress = "eNodeB2%x2ppp4"
*.eNodeB8.x2App[2].client.connectAddress = "eNodeB3%x2ppp5"
*.eNodeB8.x2App[3].client.connectAddress = "eNodeB4%x2ppp4"
*.eNodeB9.x2App[0].client.connectAddress = "eNodeB5%x2ppp3"

# X2 — 4 eNodeB tam mesh















**.sctp.nagleEnabled = false

**.sctp.enableHeartbeats = false

##########################################################
#                    App Layer                           #
##########################################################
[Config VoIP-UL]
*.server.numApps = ${numUEs}
*.server.app[*].typename = "VoIPReceiver"
*.server.app[*].localPort = 3000 + ancestorIndex(0)

*.car[*].numApps = 1
*.car[*].app[0].typename = "VoIPSender"
*.car[*].app[0].destAddress = "server"
*.car[*].app[0].destPort = 3000 + ancestorIndex(1)

[Config VoIP-DL]
*.server.numApps = ${numUEs}
*.server.app[*].typename = "VoIPSender"
*.server.app[*].localPort = 3000 + ancestorIndex(0)
*.server.app[*].destAddress = "car[" + string(ancestorIndex(0)) + "]"
*.server.app[*].startingTime = 0.05s

*.car[*].numApps = 1
*.car[*].app[0].typename = "VoIPReceiver"

# ════════════════════════════════════════════════════════════
#  TrafficApp — V2N Trafik Yonlendirme
# ════════════════════════════════════════════════════════════
[Config TrafficApp]

*.car[*].numApps = 1
*.car[*].app[0].typename = "VehicleApp"
*.car[*].app[0].reportInterval = 10s
*.car[*].app[0].serverAddress = "server"
*.car[*].app[0].serverPort = 7000
*.car[*].app[0].localPort = 6000 + ancestorIndex(1)
*.car[*].app[0].netXmlFile = "lust.net.xml"
*.car[*].app[0].penetrationRate = 0.0

*.server.app[0].rerouteInterval = 60s

*.server.numApps = 1
*.server.app[0].typename = "TrafficServer"
*.server.app[0].listenPort = 7000
*.server.app[0].vehicleBasePort = 6000
*.server.app[0].speedLimit = 13.9mps
*.server.app[0].decayInterval = 5s
*.server.app[0].netXmlFile = "lust.net.xml"
*.server.app[0].minRouteDistance = 1500m

**.crcMode = "computed"
**.cellInfo.numRbDl = 100
**.cellInfo.numRbUl = 100
**.numBands = 100
**.maxHarqRtx = 2

# ════════════════════════════════════════════════════════════
#  Penetrasyon Senaryolari
# ════════════════════════════════════════════════════════════
[Config Baseline]
extends = TrafficApp
description = "Referans — tum araclar SUMO varsayilan rotasiyla gider"
*.veinsManager.penetrationRate = 0.0
*.car[*].app[0].penetrationRate = 0.0
seed-set = 2

[Config Penetration15]
extends = TrafficApp
description = "Araclarin %15'i sunucudan dinamik rota alir"
*.veinsManager.penetrationRate = 0.15
*.car[*].app[0].penetrationRate = 1.0
*.server.app[0].K = 1.5
seed-set = 2

[Config Penetration30]
extends = TrafficApp
description = "Araclarin %30'u sunucudan dinamik rota alir"
*.veinsManager.penetrationRate = 0.30
*.car[*].app[0].penetrationRate = 1.0
*.server.app[0].K = 1.5
seed-set = 2

[Config Penetration45]
extends = TrafficApp
description = "Araclarin %45'i sunucudan dinamik rota alir"
*.veinsManager.penetrationRate = 0.45
*.car[*].app[0].penetrationRate = 1.0
*.server.app[0].K = 1.5
seed-set = 2

[Config Penetration60]
extends = TrafficApp
description = "Araclarin %60'u sunucudan dinamik rota alir"
*.veinsManager.penetrationRate = 0.60
*.car[*].app[0].penetrationRate = 1.0
*.server.app[0].K = 1.5
seed-set = 2

[Config Penetration75]
extends = TrafficApp
description = "Araclarin %75'i sunucudan dinamik rota alir"
*.veinsManager.penetrationRate = 0.75
*.car[*].app[0].penetrationRate = 1.0
*.server.app[0].K = 1.5
seed-set = 2

[Config TestCrash]
extends = TrafficApp
description = "Crash testi - tum araclar LTE"
*.veinsManager.penetrationRate = 1.0
*.car[*].app[0].penetrationRate = 1.0

[Config Penetration40k1_5]
extends = TrafficApp
description = "Araclarin %40'u K=1.5"
*.veinsManager.penetrationRate = 0.40
*.car[*].app[0].penetrationRate = 1.0
*.server.app[0].K = 1.5
seed-set = 1

[Config Penetration40k2]
extends = TrafficApp
description = "Araclarin %40'u K=2"
*.veinsManager.penetrationRate = 0.40
*.car[*].app[0].penetrationRate = 1.0
*.server.app[0].K = 2
seed-set = 1
