<?xml version="1.0" encoding="UTF-8"?>
<!-- generated on 2026-04-26 10:25:00.501369 by randomTrips.py v1.11.0-0000000000
  options: -n istanbul-v1.net.xml -o random_traffic_to_edges.trips.xml <doubleminus>begin 0 <doubleminus>end 600 <doubleminus>period 0.1 <doubleminus>fringe-factor 5 <doubleminus>prefix to_
-->
<routes xmlns:xsi="http://www.w3.org/2001/XMLSchema-instance" xsi:noNamespaceSchemaLocation="http://sumo.dlr.de/xsd/routes_file.xsd">
    <trip id="to_0" depart="0.00" from="24806693#1" to="-112888215#1"/>
    <trip id="to_1" depart="0.10" from="-329647425#2" to="-322208929#2"/>
    <trip id="to_2" depart="0.20" from="311265900#2" to="24827560#3"/>
    <trip id="to_3" depart="0.30" from="61011825#2" to="-215266536"/>
    <trip id="to_4" depart="0.40" from="1044159494#0" to="-1140696576"/>
    <trip id="to_5" depart="0.50" from="-303186569" to="153665531#3"/>
    <trip id="to_6" depart="0.60" from="-1138196368" to="-303758277#1"/>
    <trip id="to_7" depart="0.70" from="24830098#0" to="183819442#1"/>
    <trip id="to_8" depart="0.80" from="-303588578#1" to="228506944"/>
    <trip id="to_9" depart="0.90" from="330939297#5" to="-103456079#1"/>
    <trip id="to_10" depart="1.00" from="330106626#2" to="25512786#1"/>
    <trip id="to_11" depart="1.10" from="-745042248" to="-25302477#3"/>
    <trip id="to_12" depart="1.20" from="91387228#3" to="-825886232#4"/>
    <trip id="to_13" depart="1.30" from="-183744407#2" to="-228370151#0"/>
    <trip id="to_14" depart="1.40" from="338680049" to="229127967#1"/>
    <trip id="to_15" depart="1.50" from="330109792" to="303184873#2"/>
    <trip id="to_16" depart="1.60" from="183820655#2" to="91397362#1"/>
    <trip id="to_17" depart="1.70" from="-91397195#1" to="183845272"/>
    <trip id="to_18" depart="1.80" from="332620971#0" to="229238494#3"/>
    <trip id="to_19" depart="1.90" from="42141138#1" to="228374158#1"/>
    <trip id="to_20" depart="2.00" from="303184877#3" to="-132277818#3"/>
    <trip id="to_21" depart="2.10" from="-303758277#0" to="-332691985#1"/>
    <trip id="to_22" depart="2.20" from="-183428993#0" to="-329583949#0"/>
    <trip id="to_23" depart="2.30" from="-209318553#0" to="-331866603"/>
    <trip id="to_24" depart="2.40" from="24806541#0" to="-91387262#1"/>
    <trip id="to_25" depart="2.50" from="-91387216#3" to="-313763069#0"/>
    <trip id="to_26" depart="2.60" from="-329593166" to="91227672#1"/>
    <trip id="to_27" depart="2.70" from="24827570#0" to="229139531#2"/>
    <trip id="to_28" depart="2.80" from="-24805819" to="303179755"/>
    <trip id="to_29" depart="2.90" from="-23639603#1" to="-91397396#1"/>
    <trip id="to_30" depart="3.00" from="95033320#0" to="23556647#1"/>
    <trip id="to_31" depart="3.10" from="228368108#0" to="25301689#0"/>
    <trip id="to_32" depart="3.20" from="334610598" to="329580320#4"/>
    <trip id="to_33" depart="3.30" from="-304074914#0" to="-1140698904"/>
    <trip id="to_34" depart="3.40" from="-41407587#2" to="-330939297#0"/>
    <trip id="to_35" depart="3.50" from="-28584994#4" to="91286799#3"/>
    <trip id="to_36" depart="3.60" from="485179713" to="-41407590#1"/>
    <trip id="to_37" depart="3.70" from="25301462#6" to="-gneE1"/>
    <trip id="to_38" depart="3.80" from="83477389#2" to="1139094537"/>
    <trip id="to_39" depart="3.90" from="-329591910#2" to="-329591319#1"/>
    <trip id="to_40" depart="4.00" from="228374133#1" to="-330026536#0"/>
    <trip id="to_41" depart="4.10" from="229130735" to="695775282#1"/>
    <trip id="to_42" depart="4.20" from="-95033333#1" to="-321082408"/>
    <trip id="to_43" depart="4.30" from="995022795#2" to="165484147"/>
    <trip id="to_44" depart="4.40" from="-183743444#1" to="-149052537#0"/>
    <trip id="to_45" depart="4.50" from="-228362603#5" to="229361924#2"/>
    <trip id="to_46" depart="4.60" from="329595105#1" to="1100726592"/>
    <trip id="to_47" depart="4.70" from="-152336173#0" to="-92410040"/>
    <trip id="to_48" depart="4.80" from="977630192#0" to="183430260#2"/>
    <trip id="to_49" depart="4.90" from="91397307" to="432472185"/>
    <trip id="to_50" depart="5.00" from="-1100726593" to="28584994#1"/>
    <trip id="to_51" depart="5.10" from="25569551#0" to="183696575"/>
    <trip id="to_52" depart="5.20" from="-329593051#1" to="23639410#10"/>
    <trip id="to_53" depart="5.30" from="-228368108#0" to="110430942#0"/>
    <trip id="to_54" depart="5.40" from="1113579989" to="91387216#2"/>
    <trip id="to_55" depart="5.50" from="485077714" to="-330026536#0"/>
    <trip id="to_56" depart="5.60" from="165576319#0" to="-303179754#1"/>
    <trip id="to_57" depart="5.70" from="827063325#0.102" to="485077714"/>
    <trip id="to_58" depart="5.80" from="-332620541" to="23276966#0"/>
    <trip id="to_59" depart="5.90" from="23236898" to="-25302119#3"/>
    <trip id="to_60" depart="6.00" from="329261625" to="183743031#0"/>
    <trip id="to_61" depart="6.10" from="329590397" to="183430429#0"/>
    <trip id="to_62" depart="6.20" from="-1011998937#3" to="-485312346#0"/>
    <trip id="to_63" depart="6.30" from="-1112371607#0" to="91227527#3"/>
    <trip id="to_64" depart="6.40" from="485299728#1" to="332219146"/>
    <trip id="to_65" depart="6.50" from="-335354542#2" to="-180536976#2"/>
    <trip id="to_66" depart="6.60" from="485297912#1" to="91387176#1"/>
    <trip id="to_67" depart="6.70" from="-183695462#0" to="127195812#5"/>
    <trip id="to_68" depart="6.80" from="-165717647#2" to="317270969"/>
    <trip id="to_69" depart="6.90" from="329581025#1" to="-23639533#0"/>
    <trip id="to_70" depart="7.00" from="1150725755#0" to="183827317#1"/>
    <trip id="to_71" depart="7.10" from="-329591968#0" to="485287894"/>
    <trip id="to_72" depart="7.20" from="1057491047" to="-320693182"/>
    <trip id="to_73" depart="7.30" from="183845213#0" to="303184876"/>
    <trip id="to_74" depart="7.40" from="-25542621#4" to="-41407581#2"/>
    <trip id="to_75" depart="7.50" from="95033345#1" to="241036884#0"/>
    <trip id="to_76" depart="7.60" from="110321045#0" to="183319560#1"/>
    <trip id="to_77" depart="7.70" from="-228376423#1" to="-329251596#4"/>
    <trip id="to_78" depart="7.80" from="-695775286" to="228506941#0"/>
    <trip id="to_79" depart="7.90" from="-304076228#2" to="-321205348"/>
    <trip id="to_80" depart="8.00" from="-167639921#1" to="229367549#3"/>
    <trip id="to_81" depart="8.10" from="-303765149" to="809580125#1-AddedOnRampEdge"/>
    <trip id="to_82" depart="8.20" from="41407590#0" to="-183695145#0"/>
    <trip id="to_83" depart="8.30" from="-320693178" to="24826715#3"/>
    <trip id="to_84" depart="8.40" from="-303184873#2" to="-23639623#1"/>
    <trip id="to_85" depart="8.50" from="91227656#2" to="228368129#1"/>
    <trip id="to_86" depart="8.60" from="1148601709#0" to="329586442#4"/>
    <trip id="to_87" depart="8.70" from="330109792" to="-303589409"/>
    <trip id="to_88" depart="8.80" from="-183845412#0" to="110321102#1"/>
    <trip id="to_89" depart="8.90" from="1062193974#0" to="1144580021"/>
    <trip id="to_90" depart="9.00" from="304094178#0" to="24827503#1"/>
    <trip id="to_91" depart="9.10" from="931990075" to="-228374133#1"/>
    <trip id="to_92" depart="9.20" from="-95033345#1" to="-85391272"/>
    <trip id="to_93" depart="9.30" from="42141138#0" to="-329591796#3"/>
    <trip id="to_94" depart="9.40" from="-25302511#1" to="1120738047"/>
    <trip id="to_95" depart="9.50" from="1044159494#0" to="-331868344#0"/>
    <trip id="to_96" depart="9.60" from="-329579416" to="887295434"/>
    <trip id="to_97" depart="9.70" from="110430939#2" to="432870062#3"/>
    <trip id="to_98" depart="9.80" from="227457012#1" to="-153665574#1"/>
    <trip id="to_99" depart="9.90" from="gneE3" to="332895300"/>
    <trip id="to_100" depart="10.00" from="91397283#2" to="90888399#0"/>
    <trip id="to_101" depart="10.10" from="35263050#1" to="-25542885#1"/>
    <trip id="to_102" depart="10.20" from="132270033#2" to="-320693186"/>
    <trip id="to_103" depart="10.30" from="-95033338#2" to="-183278574#0"/>
    <trip id="to_104" depart="10.40" from="-91397220#1" to="941369214#0"/>
    <trip id="to_105" depart="10.50" from="-329591968#1" to="329586442#0"/>
    <trip id="to_106" depart="10.60" from="1115520572" to="1101578759#0"/>
    <trip id="to_107" depart="10.70" from="91387228#3" to="977630193#2"/>
    <trip id="to_108" depart="10.80" from="228362603#3" to="28351464#2"/>
    <trip id="to_109" depart="10.90" from="-229362140#0" to="-333289157"/>
    <trip id="to_110" depart="11.00" from="91397283#0" to="228376421"/>
    <trip id="to_111" depart="11.10" from="185138727#0" to="304076228#1"/>
    <trip id="to_112" depart="11.20" from="-132270044#2" to="228500158"/>
    <trip id="to_113" depart="11.30" from="167639921#0" to="389439195#0"/>
    <trip id="to_114" depart="11.40" from="-229370588" to="91387325#1"/>
    <trip id="to_115" depart="11.50" from="-183428993#2" to="-303186571#4"/>
    <trip id="to_116" depart="11.60" from="229357948#0" to="24827552#2"/>
    <trip id="to_117" depart="11.70" from="-312572465#2" to="-229357941"/>
    <trip id="to_118" depart="11.80" from="561590398#0-AddedOffRampEdge" to="-329591184"/>
    <trip id="to_119" depart="11.90" from="229249558#1" to="229239664#0"/>
    <trip id="to_120" depart="12.00" from="104061367#1" to="228486084#1"/>
    <trip id="to_121" depart="12.10" from="183430811#0" to="91227664#1"/>
    <trip id="to_122" depart="12.20" from="-261188322" to="28351102#2"/>
    <trip id="to_123" depart="12.30" from="-320693184#2" to="-gneE1"/>
    <trip id="to_124" depart="12.40" from="25539025#2" to="-334610518"/>
    <trip id="to_125" depart="12.50" from="-41407589" to="304096274"/>
    <trip id="to_126" depart="12.60" from="-180536976#2" to="1138629663"/>
    <trip id="to_127" depart="12.70" from="gneE1" to="977630193#2"/>
    <trip id="to_128" depart="12.80" from="-183278574#0" to="-320693184#3"/>
    <trip id="to_129" depart="12.90" from="-329591968#1" to="91227656#3"/>
    <trip id="to_130" depart="13.00" from="485315877#0" to="5170335#4"/>
    <trip id="to_131" depart="13.10" from="-91387215" to="-25302890#0"/>
    <trip id="to_132" depart="13.20" from="332895300" to="25539035#1"/>
    <trip id="to_133" depart="13.30" from="23276957" to="95033317#1"/>
    <trip id="to_134" depart="13.40" from="25301430#5" to="-1043350966"/>
    <trip id="to_135" depart="13.50" from="331683839#1" to="-333293077#0"/>
    <trip id="to_136" depart="13.60" from="25302890#1" to="91264115"/>
    <trip id="to_137" depart="13.70" from="-229124907" to="-229238480#1"/>
    <trip id="to_138" depart="13.80" from="-228359825" to="183847453#0"/>
    <trip id="to_139" depart="13.90" from="-329596762#3" to="229127975#1"/>
    <trip id="to_140" depart="14.00" from="303724001#1" to="-304096276#0"/>
    <trip id="to_141" depart="14.10" from="24806208#6" to="-330026540#1"/>
    <trip id="to_142" depart="14.20" from="132277810#0" to="809580125#1"/>
    <trip id="to_143" depart="14.30" from="338478873#0" to="-228352376#2"/>
    <trip id="to_144" depart="14.40" from="1062193974#0" to="-331866399"/>
    <trip id="to_145" depart="14.50" from="-103456074" to="329257004"/>
    <trip id="to_146" depart="14.60" from="24806567#4" to="-329653583#0"/>
    <trip id="to_147" depart="14.70" from="312655800#1" to="183845213#0"/>
    <trip id="to_148" depart="14.80" from="109156259#0" to="-1089138650"/>
    <trip id="to_149" depart="14.90" from="-183321667#3" to="55218314#1"/>
    <trip id="to_150" depart="15.00" from="695775280" to="183819915#3"/>
    <trip id="to_151" depart="15.10" from="332896591#0" to="228379158"/>
    <trip id="to_152" depart="15.20" from="-229239661#0" to="-23015067#3"/>
    <trip id="to_153" depart="15.30" from="-335357498#0" to="711295528"/>
    <trip id="to_154" depart="15.40" from="329597629#0" to="432453755"/>
    <trip id="to_155" depart="15.50" from="692988380#0" to="-317995608#1"/>
    <trip id="to_156" depart="15.60" from="-329579189#1" to="-228500155"/>
    <trip id="to_157" depart="15.70" from="329590601" to="561607212#1"/>
    <trip id="to_158" depart="15.80" from="-995022795#0" to="229242578"/>
    <trip id="to_159" depart="15.90" from="-229361927" to="91227534#3"/>
    <trip id="to_160" depart="16.00" from="429506233#3" to="923050534"/>
    <trip id="to_161" depart="16.10" from="330939891" to="543644639"/>
    <trip id="to_162" depart="16.20" from="-112888215#1" to="303588576#1"/>
    <trip id="to_163" depart="16.30" from="-61011825#2" to="91227554#3"/>
    <trip id="to_164" depart="16.40" from="330026536#0" to="44637846#3"/>
    <trip id="to_165" depart="16.50" from="330939891" to="-330109792"/>
    <trip id="to_166" depart="16.60" from="329591910#2" to="-229124892#1"/>
    <trip id="to_167" depart="16.70" from="469405656" to="42143402#2"/>
    <trip id="to_168" depart="16.80" from="-303724001#1" to="330939298"/>
    <trip id="to_169" depart="16.90" from="112392945#4" to="-338478876"/>
    <trip id="to_170" depart="17.00" from="329596762#3" to="-329260403#0"/>
    <trip id="to_171" depart="17.10" from="-1120732927#0" to="-303724001#1"/>
    <trip id="to_172" depart="17.20" from="-52090097#5" to="44637846#5"/>
    <trip id="to_173" depart="17.30" from="91397245#1" to="-331868631"/>
    <trip id="to_174" depart="17.40" from="24826715#2" to="1022125773#4"/>
    <trip id="to_175" depart="17.50" from="92410057" to="183696524#0"/>
    <trip id="to_176" depart="17.60" from="91264113" to="-229238480#1"/>
    <trip id="to_177" depart="17.70" from="91397292#4" to="-303179754#1"/>
    <trip id="to_178" depart="17.80" from="91387335#1" to="-330099609"/>
    <trip id="to_179" depart="17.90" from="-228361005" to="110430941"/>
    <trip id="to_180" depart="18.00" from="304090710" to="-41407587#3"/>
    <trip id="to_181" depart="18.10" from="229998150#0" to="165717647#0"/>
    <trip id="to_182" depart="18.20" from="-91397297#0" to="228374153#2"/>
    <trip id="to_183" depart="18.30" from="-329585272" to="25562609#0"/>
    <trip id="to_184" depart="18.40" from="-102637270#1" to="90888302"/>
    <trip id="to_185" depart="18.50" from="183844924#0" to="28351554#2"/>
    <trip id="to_186" depart="18.60" from="31358134#1" to="24827425#4"/>
    <trip id="to_187" depart="18.70" from="-91387177#3" to="-183430810#3"/>
    <trip id="to_188" depart="18.80" from="25428550#0" to="-61671985#0"/>
    <trip id="to_189" depart="18.90" from="-377762568" to="361636818#0"/>
    <trip id="to_190" depart="19.00" from="303752948" to="-334610518"/>
    <trip id="to_191" depart="19.10" from="-338478873#1" to="104061367#1"/>
    <trip id="to_192" depart="19.20" from="-95033345#0" to="-333289156#0"/>
    <trip id="to_193" depart="19.30" from="-228506934#5" to="1100670780"/>
    <trip id="to_194" depart="19.40" from="91264144" to="24827570#0"/>
    <trip id="to_195" depart="19.50" from="695775279#4" to="229238479"/>
    <trip id="to_196" depart="19.60" from="-332691985#0" to="183820682"/>
    <trip id="to_197" depart="19.70" from="-1011998937#2" to="-332620902#2"/>
    <trip id="to_198" depart="19.80" from="1100726588#1" to="228376423#3"/>
    <trip id="to_199" depart="19.90" from="25301462#2" to="1143875115"/>
    <trip id="to_200" depart="20.00" from="110430939#0" to="-320693186"/>
    <trip id="to_201" depart="20.10" from="1149816833" to="745042248"/>
    <trip id="to_202" depart="20.20" from="329597629#0" to="-261188331#0"/>
    <trip id="to_203" depart="20.30" from="-183695446#0" to="180536976#2"/>
    <trip id="to_204" depart="20.40" from="24806208#0" to="-747087375#0"/>
    <trip id="to_205" depart="20.50" from="331866603" to="304094179#0"/>
    <trip id="to_206" depart="20.60" from="25539026#0" to="-329251596#3"/>
    <trip id="to_207" depart="20.70" from="-25539035#1" to="-1120744774"/>
    <trip id="to_208" depart="20.80" from="-329254825#0" to="1148715589"/>
    <trip id="to_209" depart="20.90" from="361636818#3" to="-183695462#5"/>
    <trip id="to_210" depart="21.00" from="1031538186" to="229364622#0"/>
    <trip id="to_211" depart="21.10" from="-25428550#0" to="25512775#1"/>
    <trip id="to_212" depart="21.20" from="153665485#1" to="-329590834#1"/>
    <trip id="to_213" depart="21.30" from="25301488" to="-1033183794"/>
    <trip id="to_214" depart="21.40" from="320754702#1" to="329254825#4"/>
    <trip id="to_215" depart="21.50" from="-228359825" to="1101578763#5"/>
    <trip id="to_216" depart="21.60" from="-24827503#1" to="91387262#1"/>
    <trip id="to_217" depart="21.70" from="183428659#1" to="-153665531#4"/>
    <trip id="to_218" depart="21.80" from="-329269949" to="361636818#1"/>
    <trip id="to_219" depart="21.90" from="1120732985#0" to="329596762#1"/>
    <trip id="to_220" depart="22.00" from="25512778#0" to="95033319#2"/>
    <trip id="to_221" depart="22.10" from="229357948#2" to="91387210#2"/>
    <trip id="to_222" depart="22.20" from="61011821" to="229238471#0"/>
    <trip id="to_223" depart="22.30" from="303752947#0" to="153665531#0"/>
    <trip id="to_224" depart="22.40" from="332688519" to="183820682"/>
    <trip id="to_225" depart="22.50" from="669715186#6" to="303754580#1"/>
    <trip id="to_226" depart="22.60" from="1149844832" to="-329647425#0"/>
    <trip id="to_227" depart="22.70" from="-329261625" to="23236930#2"/>
    <trip id="to_228" depart="22.80" from="329581025#1" to="183321811"/>
    <trip id="to_229" depart="22.90" from="241036890#1" to="-331675334"/>
    <trip id="to_230" depart="23.00" from="-183420396#0" to="-332620901#0"/>
    <trip id="to_231" depart="23.10" from="-329596762#0" to="-484922256"/>
    <trip id="to_232" depart="23.20" from="183845412#0" to="-241036890#0"/>
    <trip id="to_233" depart="23.30" from="-304094173" to="25302999#1"/>
    <trip id="to_234" depart="23.40" from="303184883#1" to="-183425285"/>
    <trip id="to_235" depart="23.50" from="1011998935#0" to="183743445"/>
    <trip id="to_236" depart="23.60" from="1032943419" to="-308410541#1"/>
    <trip id="to_237" depart="23.70" from="1043350966" to="809580124"/>
    <trip id="to_238" depart="23.80" from="229130732#0" to="254966109#0"/>
    <trip id="to_239" depart="23.90" from="41407581#0" to="320827257#3"/>
    <trip id="to_240" depart="24.00" from="-91397230#0" to="-103456075#0"/>
    <trip id="to_241" depart="24.10" from="-907997521#0" to="304100729#4"/>
    <trip id="to_242" depart="24.20" from="377852711" to="91387216#0"/>
    <trip id="to_243" depart="24.30" from="104061367#0" to="304074925"/>
    <trip id="to_244" depart="24.40" from="215266536" to="229127965"/>
    <trip id="to_245" depart="24.50" from="-303588578#1" to="-321082409"/>
    <trip id="to_246" depart="24.60" from="1101798638" to="-1140694777"/>
    <trip id="to_247" depart="24.70" from="-69332556#1" to="24830098#1"/>
    <trip id="to_248" depart="24.80" from="-977630193#2" to="-25542617"/>
    <trip id="to_249" depart="24.90" from="1140698904" to="-23015067#4"/>
    <trip id="to_250" depart="25.00" from="241036882#6" to="-1138626773"/>
    <trip id="to_251" depart="25.10" from="-932881559" to="228359825"/>
    <trip id="to_252" depart="25.20" from="-1138562705" to="23639533#1"/>
    <trip id="to_253" depart="25.30" from="-229127965" to="1140694911"/>
    <trip id="to_254" depart="25.40" from="-1150325795#1" to="-91397377"/>
    <trip id="to_255" depart="25.50" from="-290774758" to="-52090097#7"/>
    <trip id="to_256" depart="25.60" from="329257430#0" to="-91397377"/>
    <trip id="to_257" depart="25.70" from="320827256" to="332219146"/>
    <trip id="to_258" depart="25.80" from="-329583726" to="-183847453#1"/>
    <trip id="to_259" depart="25.90" from="-1112371607#0" to="183743031#0"/>
    <trip id="to_260" depart="26.00" from="gneE7" to="-91286782#0"/>
    <trip id="to_261" depart="26.10" from="251548723#0" to="329583949#1"/>
    <trip id="to_262" depart="26.20" from="25300871#3" to="304103131#1"/>
    <trip id="to_263" depart="26.30" from="91387177#1" to="-303759903#0"/>
    <trip id="to_264" depart="26.40" from="-1112371616" to="-25302119#0"/>
    <trip id="to_265" depart="26.50" from="-228506934#0" to="24826872#0"/>
    <trip id="to_266" depart="26.60" from="228376421" to="-320827257#1"/>
    <trip id="to_267" depart="26.70" from="303179748#0" to="322208929#0"/>
    <trip id="to_268" depart="26.80" from="-241036887#0" to="229130738"/>
    <trip id="to_269" depart="26.90" from="320693186" to="-229238464#2"/>
    <trip id="to_270" depart="27.00" from="331867137#1" to="91397226#0"/>
    <trip id="to_271" depart="27.10" from="-228361005" to="-112888215#5"/>
    <trip id="to_272" depart="27.20" from="-361636818#3" to="24827570#1"/>
    <trip id="to_273" depart="27.30" from="91387235#0" to="1011998935#0"/>
    <trip id="to_274" depart="27.40" from="303589409" to="-183743071"/>
    <trip id="to_275" depart="27.50" from="28351464#1" to="229361924#1"/>
    <trip id="to_276" depart="27.60" from="-215266550#0" to="329262548"/>
    <trip id="to_277" depart="27.70" from="371124136#0" to="229124908#1"/>
    <trip id="to_278" depart="27.80" from="-228376423#2" to="932881558#1"/>
    <trip id="to_279" depart="27.90" from="329590913#0" to="-91227664#2"/>
    <trip id="to_280" depart="28.00" from="109163525" to="-91397230#2"/>
    <trip id="to_281" depart="28.10" from="183278574#0" to="-87416000#1"/>
    <trip id="to_282" depart="28.20" from="361636818#2" to="331679526#0"/>
    <trip id="to_283" depart="28.30" from="-228352376#2" to="91387325#1"/>
    <trip id="to_284" depart="28.40" from="24806305#3" to="331872531"/>
    <trip id="to_285" depart="28.50" from="303186566#0" to="110430942#4"/>
    <trip id="to_286" depart="28.60" from="304103135" to="91397230#0"/>
    <trip id="to_287" depart="28.70" from="-329595727#1" to="329653125"/>
    <trip id="to_288" depart="28.80" from="183844656#2" to="1164913794#0"/>
    <trip id="to_289" depart="28.90" from="1101798637" to="303184878"/>
    <trip id="to_290" depart="29.00" from="-329594071#0" to="374051237#3"/>
    <trip id="to_291" depart="29.10" from="332688519" to="-215266530"/>
    <trip id="to_292" depart="29.20" from="485315877#1" to="-329590834#1"/>
    <trip id="to_293" depart="29.30" from="1140694777" to="229236710#4"/>
    <trip id="to_294" depart="29.40" from="-91397220#1" to="-1140694777"/>
    <trip id="to_295" depart="29.50" from="37278621#0" to="-303184878"/>
    <trip id="to_296" depart="29.60" from="-303179748#0" to="329595014#1"/>
    <trip id="to_297" depart="29.70" from="-745042248" to="52090097#6"/>
    <trip id="to_298" depart="29.80" from="303179752#0" to="-331866399"/>
    <trip id="to_299" depart="29.90" from="-109156259#3" to="91387177#5"/>
    <trip id="to_300" depart="30.00" from="-183695446#4" to="28351554#5"/>
    <trip id="to_301" depart="30.10" from="132277810#1" to="312573268#0"/>
    <trip id="to_302" depart="30.20" from="28351464#1" to="23639623#1"/>
    <trip id="to_303" depart="30.30" from="136456162#0" to="329591796#1"/>
    <trip id="to_304" depart="30.40" from="-183749132" to="-322208926"/>
    <trip id="to_305" depart="30.50" from="28351554#2" to="-361636818#2"/>
    <trip id="to_306" depart="30.60" from="229127968" to="1147323572"/>
    <trip id="to_307" depart="30.70" from="183743988#0" to="1101583548#0"/>
    <trip id="to_308" depart="30.80" from="320693180" to="-62730202#4"/>
    <trip id="to_309" depart="30.90" from="303179756" to="-330940893"/>
    <trip id="to_310" depart="31.00" from="-329583453" to="-229360145"/>
    <trip id="to_311" depart="31.10" from="-25302999#3" to="-229249558#1"/>
    <trip id="to_312" depart="31.20" from="183820655#0" to="320693178"/>
    <trip id="to_313" depart="31.30" from="-25301888#1" to="-320754702#0"/>
    <trip id="to_314" depart="31.40" from="132270019" to="290731791#0"/>
    <trip id="to_315" depart="31.50" from="92410029#1" to="183421401#1"/>
    <trip id="to_316" depart="31.60" from="-330939297#5" to="-228376435"/>
    <trip id="to_317" depart="31.70" from="-25401137#1" to="-329260403#0"/>
    <trip id="to_318" depart="31.80" from="-25300937" to="-110321102#2"/>
    <trip id="to_319" depart="31.90" from="183819915#0" to="-331410847#0"/>
    <trip id="to_320" depart="32.00" from="91397365" to="183847453#0"/>
    <trip id="to_321" depart="32.10" from="290731792#0" to="-23015067#0"/>
    <trip id="to_322" depart="32.20" from="443790676#3" to="132270011#1"/>
    <trip id="to_323" depart="32.30" from="469405658#1" to="228370162#0"/>
    <trip id="to_324" depart="32.40" from="1145018936" to="1112371612#4"/>
    <trip id="to_325" depart="32.50" from="-25301689#1" to="-153677542"/>
    <trip id="to_326" depart="32.60" from="91286656#0" to="1149818606"/>
    <trip id="to_327" depart="32.70" from="331896714#0" to="1023353087"/>
    <trip id="to_328" depart="32.80" from="-183320482#1" to="229363521#3"/>
    <trip id="to_329" depart="32.90" from="-132148713" to="-25301462#1"/>
    <trip id="to_330" depart="33.00" from="228375340#0" to="-335357498#2"/>
    <trip id="to_331" depart="33.10" from="95033337#1" to="-229239664#1"/>
    <trip id="to_332" depart="33.20" from="329579416" to="229129793#3"/>
    <trip id="to_333" depart="33.30" from="329593813" to="-329254825#2"/>
    <trip id="to_334" depart="33.40" from="183430810#2" to="1121889988"/>
    <trip id="to_335" depart="33.50" from="110430939#0" to="429820455"/>
    <trip id="to_336" depart="33.60" from="95033320#1" to="-338680049"/>
    <trip id="to_337" depart="33.70" from="23639778" to="229139532"/>
    <trip id="to_338" depart="33.80" from="312655799" to="91387177#2"/>
    <trip id="to_339" depart="33.90" from="-28351461#3" to="-320693176#0"/>
    <trip id="to_340" depart="34.00" from="25302313#0" to="-25302628#0"/>
    <trip id="to_341" depart="34.10" from="-24827425#8" to="-183699886#1"/>
    <trip id="to_342" depart="34.20" from="-1032943203" to="1121889988"/>
    <trip id="to_343" depart="34.30" from="229242580#0" to="-332738618"/>
    <trip id="to_344" depart="34.40" from="-304094173" to="25542639#1"/>
    <trip id="to_345" depart="34.50" from="303179756" to="1138562705"/>
    <trip id="to_346" depart="34.60" from="28351006#2" to="904287742"/>
    <trip id="to_347" depart="34.70" from="329591968#1" to="229361327"/>
    <trip id="to_348" depart="34.80" from="25302477#4" to="91227656#5"/>
    <trip id="to_349" depart="34.90" from="1066536034#0" to="183819441"/>
    <trip id="to_350" depart="35.00" from="24827560#3" to="827491212#4"/>
    <trip id="to_351" depart="35.10" from="332620678#0" to="-183695446#1"/>
    <trip id="to_352" depart="35.20" from="-241036883#2" to="-37278648#0"/>
    <trip id="to_353" depart="35.30" from="320751973" to="228362609#0"/>
    <trip id="to_354" depart="35.40" from="-331413084" to="-229368397#1"/>
    <trip id="to_355" depart="35.50" from="28351102#4" to="25512800#8"/>
    <trip id="to_356" depart="35.60" from="91286782#0" to="132277820#1"/>
    <trip id="to_357" depart="35.70" from="153665403#0" to="-183845213#1"/>
    <trip id="to_358" depart="35.80" from="-1144612919" to="110321109#3"/>
    <trip id="to_359" depart="35.90" from="-485077714" to="-329592075#1"/>
    <trip id="to_360" depart="36.00" from="-183743444#1" to="91387335#4"/>
    <trip id="to_361" depart="36.10" from="332896592#4" to="228370166#5"/>
    <trip id="to_362" depart="36.20" from="91387178#1" to="gneE5"/>
    <trip id="to_363" depart="36.30" from="25539025#7" to="-330939702"/>
    <trip id="to_364" depart="36.40" from="-1145531358#0" to="312194207#1"/>
    <trip id="to_365" depart="36.50" from="1145532493" to="241036887#4"/>
    <trip id="to_366" depart="36.60" from="83700038#1" to="-303184877#3"/>
    <trip id="to_367" depart="36.70" from="229139526#0" to="229371013"/>
    <trip id="to_368" depart="36.80" from="149052537#3" to="-228351371#0"/>
    <trip id="to_369" depart="36.90" from="-87416007#1" to="-695775278#1"/>
    <trip id="to_370" depart="37.00" from="255361388" to="42141138#5"/>
    <trip id="to_371" depart="37.10" from="-543644639" to="25302999#1"/>
    <trip id="to_372" depart="37.20" from="-331410847#1" to="91387171"/>
    <trip id="to_373" depart="37.30" from="330944065#1" to="183827445"/>
    <trip id="to_374" depart="37.40" from="1115308625" to="-41407590#1"/>
    <trip id="to_375" depart="37.50" from="-485286937" to="91397297#0"/>
    <trip id="to_376" depart="37.60" from="-977630193#2" to="175518808#1"/>
    <trip id="to_377" depart="37.70" from="95033319#0" to="24806146#5"/>
    <trip id="to_378" depart="37.80" from="185138727#2" to="1066536032"/>
    <trip id="to_379" depart="37.90" from="-25302131#0" to="-91387223#4"/>
    <trip id="to_380" depart="38.00" from="322208926" to="229361446#0"/>
    <trip id="to_381" depart="38.10" from="329254825#0" to="-304096276#0"/>
    <trip id="to_382" depart="38.20" from="222737047" to="91227526#1"/>
    <trip id="to_383" depart="38.30" from="110321045#0" to="25512786#1"/>
    <trip id="to_384" depart="38.40" from="-228376424" to="91397362#1"/>
    <trip id="to_385" depart="38.50" from="23236879" to="-329590348#0"/>
    <trip id="to_386" depart="38.60" from="-229371011" to="183827445"/>
    <trip id="to_387" depart="38.70" from="228351372" to="-228360704#0"/>
    <trip id="to_388" depart="38.80" from="95033333#0" to="85390497#0"/>
    <trip id="to_389" depart="38.90" from="112888217#0" to="-229239662#0"/>
    <trip id="to_390" depart="39.00" from="332735438" to="132277814"/>
    <trip id="to_391" depart="39.10" from="303589412" to="153879745"/>
    <trip id="to_392" depart="39.20" from="-329636076" to="332688232"/>
    <trip id="to_393" depart="39.30" from="92410047#4" to="-329590834#0"/>
    <trip id="to_394" depart="39.40" from="228351369#0" to="-932881558#0"/>
    <trip id="to_395" depart="39.50" from="87416011#4" to="153677551#8"/>
    <trip id="to_396" depart="39.60" from="485302431#0" to="44637846#3"/>
    <trip id="to_397" depart="39.70" from="-329652636#1" to="329591046"/>
    <trip id="to_398" depart="39.80" from="1032070635" to="91227656#5"/>
    <trip id="to_399" depart="39.90" from="183319306" to="331405919#1"/>