<?xml version="1.0" encoding="UTF-8"?>
<!-- generated on 2026-05-10 16:29:28.624861 by randomTrips.py v1.11.0-0000000000
  options: -n istanbul-v1.net.xml -o random_traffic_med.trips.xml <doubleminus>begin 0 <doubleminus>end 3000 <doubleminus>period 0.25 <doubleminus>fringe-factor 5
-->
<routes xmlns:xsi="http://www.w3.org/2001/XMLSchema-instance" xsi:noNamespaceSchemaLocation="http://sumo.dlr.de/xsd/routes_file.xsd">
    <trip id="0" depart="0.00" from="24806693#1" to="-112888215#1"/>
    <trip id="1" depart="0.25" from="-329647425#2" to="-322208929#2"/>
    <trip id="2" depart="0.50" from="311265900#2" to="24827560#3"/>
    <trip id="3" depart="0.75" from="61011825#2" to="-215266536"/>
    <trip id="4" depart="1.00" from="1044159494#0" to="-1140696576"/>
    <trip id="5" depart="1.25" from="-303186569" to="153665531#3"/>
    <trip id="6" depart="1.50" from="-1138196368" to="-303758277#1"/>
    <trip id="7" depart="1.75" from="24830098#0" to="183819442#1"/>
    <trip id="8" depart="2.00" from="-303588578#1" to="228506944"/>
    <trip id="9" depart="2.25" from="330939297#5" to="-103456079#1"/>
    <trip id="10" depart="2.50" from="330106626#2" to="25512786#1"/>
    <trip id="11" depart="2.75" from="-745042248" to="-25302477#3"/>
    <trip id="12" depart="3.00" from="91387228#3" to="-825886232#4"/>
    <trip id="13" depart="3.25" from="-183744407#2" to="-228370151#0"/>
    <trip id="14" depart="3.50" from="338680049" to="229127967#1"/>
    <trip id="15" depart="3.75" from="330109792" to="303184873#2"/>
    <trip id="16" depart="4.00" from="183820655#2" to="91397362#1"/>
    <trip id="17" depart="4.25" from="-91397195#1" to="183845272"/>
    <trip id="18" depart="4.50" from="332620971#0" to="229238494#3"/>
    <trip id="19" depart="4.75" from="42141138#1" to="228374158#1"/>
    <trip id="20" depart="5.00" from="303184877#3" to="-132277818#3"/>
    <trip id="21" depart="5.25" from="-303758277#0" to="-332691985#1"/>
    <trip id="22" depart="5.50" from="-183428993#0" to="-329583949#0"/>
    <trip id="23" depart="5.75" from="-209318553#0" to="-331866603"/>
    <trip id="24" depart="6.00" from="24806541#0" to="-91387262#1"/>
    <trip id="25" depart="6.25" from="-91387216#3" to="-313763069#0"/>
    <trip id="26" depart="6.50" from="-329593166" to="91227672#1"/>
    <trip id="27" depart="6.75" from="24827570#0" to="229139531#2"/>
    <trip id="28" depart="7.00" from="-24805819" to="303179755"/>
    <trip id="29" depart="7.25" from="-23639603#1" to="-91397396#1"/>
    <trip id="30" depart="7.50" from="95033320#0" to="23556647#1"/>
    <trip id="31" depart="7.75" from="228368108#0" to="25301689#0"/>
    <trip id="32" depart="8.00" from="334610598" to="329580320#4"/>
    <trip id="33" depart="8.25" from="-304074914#0" to="-1140698904"/>
    <trip id="34" depart="8.50" from="-41407587#2" to="-330939297#0"/>
    <trip id="35" depart="8.75" from="-28584994#4" to="91286799#3"/>
    <trip id="36" depart="9.00" from="485179713" to="-41407590#1"/>
    <trip id="37" depart="9.25" from="25301462#6" to="-gneE1"/>
    <trip id="38" depart="9.50" from="83477389#2" to="1139094537"/>
    <trip id="39" depart="9.75" from="-329591910#2" to="-329591319#1"/>
    <trip id="40" depart="10.00" from="228374133#1" to="-330026536#0"/>
    <trip id="41" depart="10.25" from="229130735" to="695775282#1"/>
    <trip id="42" depart="10.50" from="-95033333#1" to="-321082408"/>
    <trip id="43" depart="10.75" from="995022795#2" to="165484147"/>
    <trip id="44" depart="11.00" from="-183743444#1" to="-149052537#0"/>
    <trip id="45" depart="11.25" from="-228362603#5" to="229361924#2"/>
    <trip id="46" depart="11.50" from="329595105#1" to="1100726592"/>
    <trip id="47" depart="11.75" from="-152336173#0" to="-92410040"/>
    <trip id="48" depart="12.00" from="977630192#0" to="183430260#2"/>
    <trip id="49" depart="12.25" from="91397307" to="432472185"/>
    <trip id="50" depart="12.50" from="-1100726593" to="28584994#1"/>
    <trip id="51" depart="12.75" from="25569551#0" to="183696575"/>
    <trip id="52" depart="13.00" from="-329593051#1" to="23639410#10"/>
    <trip id="53" depart="13.25" from="-228368108#0" to="110430942#0"/>
    <trip id="54" depart="13.50" from="1113579989" to="91387216#2"/>
    <trip id="55" depart="13.75" from="485077714" to="-330026536#0"/>
    <trip id="56" depart="14.00" from="165576319#0" to="-303179754#1"/>
    <trip id="57" depart="14.25" from="827063325#0.102" to="485077714"/>
    <trip id="58" depart="14.50" from="-332620541" to="23276966#0"/>
    <trip id="59" depart="14.75" from="23236898" to="-25302119#3"/>
    <trip id="60" depart="15.00" from="329261625" to="183743031#0"/>
    <trip id="61" depart="15.25" from="329590397" to="183430429#0"/>
    <trip id="62" depart="15.50" from="-1011998937#3" to="-485312346#0"/>
    <trip id="63" depart="15.75" from="-1112371607#0" to="91227527#3"/>
    <trip id="64" depart="16.00" from="485299728#1" to="332219146"/>
    <trip id="65" depart="16.25" from="-335354542#2" to="-180536976#2"/>
    <trip id="66" depart="16.50" from="485297912#1" to="91387176#1"/>
    <trip id="67" depart="16.75" from="-183695462#0" to="127195812#5"/>
    <trip id="68" depart="17.00" from="-165717647#2" to="317270969"/>
    <trip id="69" depart="17.25" from="329581025#1" to="-23639533#0"/>
    <trip id="70" depart="17.50" from="1150725755#0" to="183827317#1"/>
    <trip id="71" depart="17.75" from="-329591968#0" to="485287894"/>
    <trip id="72" depart="18.00" from="1057491047" to="-320693182"/>
    <trip id="73" depart="18.25" from="183845213#0" to="303184876"/>
    <trip id="74" depart="18.50" from="-25542621#4" to="-41407581#2"/>
    <trip id="75" depart="18.75" from="95033345#1" to="241036884#0"/>
    <trip id="76" depart="19.00" from="110321045#0" to="183319560#1"/>
    <trip id="77" depart="19.25" from="-228376423#1" to="-329251596#4"/>
    <trip id="78" depart="19.50" from="-695775286" to="228506941#0"/>
    <trip id="79" depart="19.75" from="-304076228#2" to="-321205348"/>
    <trip id="80" depart="20.00" from="-167639921#1" to="229367549#3"/>
    <trip id="81" depart="20.25" from="-303765149" to="809580125#1-AddedOnRampEdge"/>
    <trip id="82" depart="20.50" from="41407590#0" to="-183695145#0"/>
    <trip id="83" depart="20.75" from="-320693178" to="24826715#3"/>
    <trip id="84" depart="21.00" from="-303184873#2" to="-23639623#1"/>
    <trip id="85" depart="21.25" from="91227656#2" to="228368129#1"/>
    <trip id="86" depart="21.50" from="1148601709#0" to="329586442#4"/>
    <trip id="87" depart="21.75" from="330109792" to="-303589409"/>
    <trip id="88" depart="22.00" from="-183845412#0" to="110321102#1"/>
    <trip id="89" depart="22.25" from="1062193974#0" to="1144580021"/>
    <trip id="90" depart="22.50" from="304094178#0" to="24827503#1"/>
    <trip id="91" depart="22.75" from="931990075" to="-228374133#1"/>
    <trip id="92" depart="23.00" from="-95033345#1" to="-85391272"/>
    <trip id="93" depart="23.25" from="42141138#0" to="-329591796#3"/>
    <trip id="94" depart="23.50" from="-25302511#1" to="1120738047"/>
    <trip id="95" depart="23.75" from="1044159494#0" to="-331868344#0"/>
    <trip id="96" depart="24.00" from="-329579416" to="887295434"/>
    <trip id="97" depart="24.25" from="110430939#2" to="432870062#3"/>
    <trip id="98" depart="24.50" from="227457012#1" to="-153665574#1"/>
    <trip id="99" depart="24.75" from="gneE3" to="332895300"/>
    <trip id="100" depart="25.00" from="91397283#2" to="90888399#0"/>
    <trip id="101" depart="25.25" from="35263050#1" to="-25542885#1"/>
    <trip id="102" depart="25.50" from="132270033#2" to="-320693186"/>
    <trip id="103" depart="25.75" from="-95033338#2" to="-183278574#0"/>
    <trip id="104" depart="26.00" from="-91397220#1" to="941369214#0"/>
    <trip id="105" depart="26.25" from="-329591968#1" to="329586442#0"/>
    <trip id="106" depart="26.50" from="1115520572" to="1101578759#0"/>
    <trip id="107" depart="26.75" from="91387228#3" to="977630193#2"/>
    <trip id="108" depart="27.00" from="228362603#3" to="28351464#2"/>
    <trip id="109" depart="27.25" from="-229362140#0" to="-333289157"/>
    <trip id="110" depart="27.50" from="91397283#0" to="228376421"/>
    <trip id="111" depart="27.75" from="185138727#0" to="304076228#1"/>
    <trip id="112" depart="28.00" from="-132270044#2" to="228500158"/>
    <trip id="113" depart="28.25" from="167639921#0" to="389439195#0"/>
    <trip id="114" depart="28.50" from="-229370588" to="91387325#1"/>
    <trip id="115" depart="28.75" from="-183428993#2" to="-303186571#4"/>
    <trip id="116" depart="29.00" from="229357948#0" to="24827552#2"/>
    <trip id="117" depart="29.25" from="-312572465#2" to="-229357941"/>
    <trip id="118" depart="29.50" from="561590398#0-AddedOffRampEdge" to="-329591184"/>
    <trip id="119" depart="29.75" from="229249558#1" to="229239664#0"/>
    <trip id="120" depart="30.00" from="104061367#1" to="228486084#1"/>
    <trip id="121" depart="30.25" from="183430811#0" to="91227664#1"/>
    <trip id="122" depart="30.50" from="-261188322" to="28351102#2"/>
    <trip id="123" depart="30.75" from="-320693184#2" to="-gneE1"/>
    <trip id="124" depart="31.00" from="25539025#2" to="-334610518"/>
    <trip id="125" depart="31.25" from="-41407589" to="304096274"/>
    <trip id="126" depart="31.50" from="-180536976#2" to="1138629663"/>
    <trip id="127" depart="31.75" from="gneE1" to="977630193#2"/>
    <trip id="128" depart="32.00" from="-183278574#0" to="-320693184#3"/>
    <trip id="129" depart="32.25" from="-329591968#1" to="91227656#3"/>
    <trip id="130" depart="32.50" from="485315877#0" to="5170335#4"/>
    <trip id="131" depart="32.75" from="-91387215" to="-25302890#0"/>
    <trip id="132" depart="33.00" from="332895300" to="25539035#1"/>
    <trip id="133" depart="33.25" from="23276957" to="95033317#1"/>
    <trip id="134" depart="33.50" from="25301430#5" to="-1043350966"/>
    <trip id="135" depart="33.75" from="331683839#1" to="-333293077#0"/>
    <trip id="136" depart="34.00" from="25302890#1" to="91264115"/>
    <trip id="137" depart="34.25" from="-229124907" to="-229238480#1"/>
    <trip id="138" depart="34.50" from="-228359825" to="183847453#0"/>
    <trip id="139" depart="34.75" from="-329596762#3" to="229127975#1"/>
    <trip id="140" depart="35.00" from="303724001#1" to="-304096276#0"/>
    <trip id="141" depart="35.25" from="24806208#6" to="-330026540#1"/>
    <trip id="142" depart="35.50" from="132277810#0" to="809580125#1"/>
    <trip id="143" depart="35.75" from="338478873#0" to="-228352376#2"/>
    <trip id="144" depart="36.00" from="1062193974#0" to="-331866399"/>
    <trip id="145" depart="36.25" from="-103456074" to="329257004"/>
    <trip id="146" depart="36.50" from="24806567#4" to="-329653583#0"/>
    <trip id="147" depart="36.75" from="312655800#1" to="183845213#0"/>
    <trip id="148" depart="37.00" from="109156259#0" to="-1089138650"/>
    <trip id="149" depart="37.25" from="-183321667#3" to="55218314#1"/>
    <trip id="150" depart="37.50" from="695775280" to="183819915#3"/>
    <trip id="151" depart="37.75" from="332896591#0" to="228379158"/>
    <trip id="152" depart="38.00" from="-229239661#0" to="-23015067#3"/>
    <trip id="153" depart="38.25" from="-335357498#0" to="711295528"/>
    <trip id="154" depart="38.50" from="329597629#0" to="432453755"/>
    <trip id="155" depart="38.75" from="692988380#0" to="-317995608#1"/>
    <trip id="156" depart="39.00" from="-329579189#1" to="-228500155"/>
    <trip id="157" depart="39.25" from="329590601" to="561607212#1"/>
    <trip id="158" depart="39.50" from="-995022795#0" to="229242578"/>
    <trip id="159" depart="39.75" from="-229361927" to="91227534#3"/>
    <trip id="160" depart="40.00" from="429506233#3" to="923050534"/>
    <trip id="161" depart="40.25" from="330939891" to="543644639"/>
    <trip id="162" depart="40.50" from="-112888215#1" to="303588576#1"/>
    <trip id="163" depart="40.75" from="-61011825#2" to="91227554#3"/>
    <trip id="164" depart="41.00" from="330026536#0" to="44637846#3"/>
    <trip id="165" depart="41.25" from="330939891" to="-330109792"/>
    <trip id="166" depart="41.50" from="329591910#2" to="-229124892#1"/>
    <trip id="167" depart="41.75" from="469405656" to="42143402#2"/>
    <trip id="168" depart="42.00" from="-303724001#1" to="330939298"/>
    <trip id="169" depart="42.25" from="112392945#4" to="-338478876"/>
    <trip id="170" depart="42.50" from="329596762#3" to="-329260403#0"/>
    <trip id="171" depart="42.75" from="-1120732927#0" to="-303724001#1"/>
    <trip id="172" depart="43.00" from="-52090097#5" to="44637846#5"/>
    <trip id="173" depart="43.25" from="91397245#1" to="-331868631"/>
    <trip id="174" depart="43.50" from="24826715#2" to="1022125773#4"/>
    <trip id="175" depart="43.75" from="92410057" to="183696524#0"/>
    <trip id="176" depart="44.00" from="91264113" to="-229238480#1"/>
    <trip id="177" depart="44.25" from="91397292#4" to="-303179754#1"/>
    <trip id="178" depart="44.50" from="91387335#1" to="-330099609"/>
    <trip id="179" depart="44.75" from="-228361005" to="110430941"/>
    <trip id="180" depart="45.00" from="304090710" to="-41407587#3"/>
    <trip id="181" depart="45.25" from="229998150#0" to="165717647#0"/>
    <trip id="182" depart="45.50" from="-91397297#0" to="228374153#2"/>
    <trip id="183" depart="45.75" from="-329585272" to="25562609#0"/>
    <trip id="184" depart="46.00" from="-102637270#1" to="90888302"/>
    <trip id="185" depart="46.25" from="183844924#0" to="28351554#2"/>
    <trip id="186" depart="46.50" from="31358134#1" to="24827425#4"/>
    <trip id="187" depart="46.75" from="-91387177#3" to="-183430810#3"/>
    <trip id="188" depart="47.00" from="25428550#0" to="-61671985#0"/>
    <trip id="189" depart="47.25" from="-377762568" to="361636818#0"/>
    <trip id="190" depart="47.50" from="303752948" to="-334610518"/>
    <trip id="191" depart="47.75" from="-338478873#1" to="104061367#1"/>
    <trip id="192" depart="48.00" from="-95033345#0" to="-333289156#0"/>
    <trip id="193" depart="48.25" from="-228506934#5" to="1100670780"/>
    <trip id="194" depart="48.50" from="91264144" to="24827570#0"/>
    <trip id="195" depart="48.75" from="695775279#4" to="229238479"/>
    <trip id="196" depart="49.00" from="-332691985#0" to="183820682"/>
    <trip id="197" depart="49.25" from="-1011998937#2" to="-332620902#2"/>
    <trip id="198" depart="49.50" from="1100726588#1" to="228376423#3"/>
    <trip id="199" depart="49.75" from="25301462#2" to="1143875115"/>
    <trip id="200" depart="50.00" from="110430939#0" to="-320693186"/>
    <trip id="201" depart="50.25" from="1149816833" to="745042248"/>
    <trip id="202" depart="50.50" from="329597629#0" to="-261188331#0"/>
    <trip id="203" depart="50.75" from="-183695446#0" to="180536976#2"/>
    <trip id="204" depart="51.00" from="24806208#0" to="-747087375#0"/>
    <trip id="205" depart="51.25" from="331866603" to="304094179#0"/>
    <trip id="206" depart="51.50" from="25539026#0" to="-329251596#3"/>
    <trip id="207" depart="51.75" from="-25539035#1" to="-1120744774"/>
    <trip id="208" depart="52.00" from="-329254825#0" to="1148715589"/>
    <trip id="209" depart="52.25" from="361636818#3" to="-183695462#5"/>
    <trip id="210" depart="52.50" from="1031538186" to="229364622#0"/>
    <trip id="211" depart="52.75" from="-25428550#0" to="25512775#1"/>
    <trip id="212" depart="53.00" from="153665485#1" to="-329590834#1"/>
    <trip id="213" depart="53.25" from="25301488" to="-1033183794"/>
    <trip id="214" depart="53.50" from="320754702#1" to="329254825#4"/>
    <trip id="215" depart="53.75" from="-228359825" to="1101578763#5"/>
    <trip id="216" depart="54.00" from="-24827503#1" to="91387262#1"/>
    <trip id="217" depart="54.25" from="183428659#1" to="-153665531#4"/>
    <trip id="218" depart="54.50" from="-329269949" to="361636818#1"/>
    <trip id="219" depart="54.75" from="1120732985#0" to="329596762#1"/>
    <trip id="220" depart="55.00" from="25512778#0" to="95033319#2"/>
    <trip id="221" depart="55.25" from="229357948#2" to="91387210#2"/>
    <trip id="222" depart="55.50" from="61011821" to="229238471#0"/>
    <trip id="223" depart="55.75" from="303752947#0" to="153665531#0"/>
    <trip id="224" depart="56.00" from="332688519" to="183820682"/>
    <trip id="225" depart="56.25" from="669715186#6" to="303754580#1"/>
    <trip id="226" depart="56.50" from="1149844832" to="-329647425#0"/>
    <trip id="227" depart="56.75" from="-329261625" to="23236930#2"/>
    <trip id="228" depart="57.00" from="329581025#1" to="183321811"/>
    <trip id="229" depart="57.25" from="241036890#1" to="-331675334"/>
    <trip id="230" depart="57.50" from="-183420396#0" to="-332620901#0"/>
    <trip id="231" depart="57.75" from="-329596762#0" to="-484922256"/>
    <trip id="232" depart="58.00" from="183845412#0" to="-241036890#0"/>
    <trip id="233" depart="58.25" from="-304094173" to="25302999#1"/>
    <trip id="234" depart="58.50" from="303184883#1" to="-183425285"/>
    <trip id="235" depart="58.75" from="1011998935#0" to="183743445"/>
    <trip id="236" depart="59.00" from="1032943419" to="-308410541#1"/>
    <trip id="237" depart="59.25" from="1043350966" to="809580124"/>
    <trip id="238" depart="59.50" from="229130732#0" to="254966109#0"/>
    <trip id="239" depart="59.75" from="41407581#0" to="320827257#3"/>
    <trip id="240" depart="60.00" from="-91397230#0" to="-103456075#0"/>
    <trip id="241" depart="60.25" from="-907997521#0" to="304100729#4"/>
    <trip id="242" depart="60.50" from="377852711" to="91387216#0"/>
    <trip id="243" depart="60.75" from="104061367#0" to="304074925"/>
    <trip id="244" depart="61.00" from="215266536" to="229127965"/>
    <trip id="245" depart="61.25" from="-303588578#1" to="-321082409"/>
    <trip id="246" depart="61.50" from="1101798638" to="-1140694777"/>
    <trip id="247" depart="61.75" from="-69332556#1" to="24830098#1"/>
    <trip id="248" depart="62.00" from="-977630193#2" to="-25542617"/>
    <trip id="249" depart="62.25" from="1140698904" to="-23015067#4"/>
    <trip id="250" depart="62.50" from="241036882#6" to="-1138626773"/>
    <trip id="251" depart="62.75" from="-932881559" to="228359825"/>
    <trip id="252" depart="63.00" from="-1138562705" to="23639533#1"/>
    <trip id="253" depart="63.25" from="-229127965" to="1140694911"/>
    <trip id="254" depart="63.50" from="-1150325795#1" to="-91397377"/>
    <trip id="255" depart="63.75" from="-290774758" to="-52090097#7"/>
    <trip id="256" depart="64.00" from="329257430#0" to="-91397377"/>
    <trip id="257" depart="64.25" from="320827256" to="332219146"/>
    <trip id="258" depart="64.50" from="-329583726" to="-183847453#1"/>
    <trip id="259" depart="64.75" from="-1112371607#0" to="183743031#0"/>
    <trip id="260" depart="65.00" from="gneE7" to="-91286782#0"/>
    <trip id="261" depart="65.25" from="251548723#0" to="329583949#1"/>
    <trip id="262" depart="65.50" from="25300871#3" to="304103131#1"/>
    <trip id="263" depart="65.75" from="91387177#1" to="-303759903#0"/>
    <trip id="264" depart="66.00" from="-1112371616" to="-25302119#0"/>
    <trip id="265" depart="66.25" from="-228506934#0" to="24826872#0"/>
    <trip id="266" depart="66.50" from="228376421" to="-320827257#1"/>
    <trip id="267" depart="66.75" from="303179748#0" to="322208929#0"/>
    <trip id="268" depart="67.00" from="-241036887#0" to="229130738"/>
    <trip id="269" depart="67.25" from="320693186" to="-229238464#2"/>
    <trip id="270" depart="67.50" from="331867137#1" to="91397226#0"/>
    <trip id="271" depart="67.75" from="-228361005" to="-112888215#5"/>
    <trip id="272" depart="68.00" from="-361636818#3" to="24827570#1"/>
    <trip id="273" depart="68.25" from="91387235#0" to="1011998935#0"/>
    <trip id="274" depart="68.50" from="303589409" to="-183743071"/>
    <trip id="275" depart="68.75" from="28351464#1" to="229361924#1"/>
    <trip id="276" depart="69.00" from="-215266550#0" to="329262548"/>
    <trip id="277" depart="69.25" from="371124136#0" to="229124908#1"/>
    <trip id="278" depart="69.50" from="-228376423#2" to="932881558#1"/>
    <trip id="279" depart="69.75" from="329590913#0" to="-91227664#2"/>
    <trip id="280" depart="70.00" from="109163525" to="-91397230#2"/>
    <trip id="281" depart="70.25" from="183278574#0" to="-87416000#1"/>
    <trip id="282" depart="70.50" from="361636818#2" to="331679526#0"/>
    <trip id="283" depart="70.75" from="-228352376#2" to="91387325#1"/>
    <trip id="284" depart="71.00" from="24806305#3" to="331872531"/>
    <trip id="285" depart="71.25" from="303186566#0" to="110430942#4"/>
    <trip id="286" depart="71.50" from="304103135" to="91397230#0"/>
    <trip id="287" depart="71.75" from="-329595727#1" to="329653125"/>
    <trip id="288" depart="72.00" from="183844656#2" to="1164913794#0"/>
    <trip id="289" depart="72.25" from="1101798637" to="303184878"/>
    <trip id="290" depart="72.50" from="-329594071#0" to="374051237#3"/>
    <trip id="291" depart="72.75" from="332688519" to="-215266530"/>
    <trip id="292" depart="73.00" from="485315877#1" to="-329590834#1"/>
    <trip id="293" depart="73.25" from="1140694777" to="229236710#4"/>
    <trip id="294" depart="73.50" from="-91397220#1" to="-1140694777"/>
    <trip id="295" depart="73.75" from="37278621#0" to="-303184878"/>
    <trip id="296" depart="74.00" from="-303179748#0" to="329595014#1"/>
    <trip id="297" depart="74.25" from="-745042248" to="52090097#6"/>
    <trip id="298" depart="74.50" from="303179752#0" to="-331866399"/>
    <trip id="299" depart="74.75" from="-109156259#3" to="91387177#5"/>
    <trip id="300" depart="75.00" from="-183695446#4" to="28351554#5"/>
    <trip id="301" depart="75.25" from="132277810#1" to="312573268#0"/>
    <trip id="302" depart="75.50" from="28351464#1" to="23639623#1"/>
    <trip id="303" depart="75.75" from="136456162#0" to="329591796#1"/>
    <trip id="304" depart="76.00" from="-183749132" to="-322208926"/>
    <trip id="305" depart="76.25" from="28351554#2" to="-361636818#2"/>
    <trip id="306" depart="76.50" from="229127968" to="1147323572"/>
    <trip id="307" depart="76.75" from="183743988#0" to="1101583548#0"/>
    <trip id="308" depart="77.00" from="320693180" to="-62730202#4"/>
    <trip id="309" depart="77.25" from="303179756" to="-330940893"/>
    <trip id="310" depart="77.50" from="-329583453" to="-229360145"/>
    <trip id="311" depart="77.75" from="-25302999#3" to="-229249558#1"/>
    <trip id="312" depart="78.00" from="183820655#0" to="320693178"/>
    <trip id="313" depart="78.25" from="-25301888#1" to="-320754702#0"/>
    <trip id="314" depart="78.50" from="132270019" to="290731791#0"/>
    <trip id="315" depart="78.75" from="92410029#1" to="183421401#1"/>
    <trip id="316" depart="79.00" from="-330939297#5" to="-228376435"/>
    <trip id="317" depart="79.25" from="-25401137#1" to="-329260403#0"/>
    <trip id="318" depart="79.50" from="-25300937" to="-110321102#2"/>
    <trip id="319" depart="79.75" from="183819915#0" to="-331410847#0"/>
    <trip id="320" depart="80.00" from="91397365" to="183847453#0"/>
    <trip id="321" depart="80.25" from="290731792#0" to="-23015067#0"/>
    <trip id="322" depart="80.50" from="443790676#3" to="132270011#1"/>
    <trip id="323" depart="80.75" from="469405658#1" to="228370162#0"/>
    <trip id="324" depart="81.00" from="1145018936" to="1112371612#4"/>
    <trip id="325" depart="81.25" from="-25301689#1" to="-153677542"/>
    <trip id="326" depart="81.50" from="91286656#0" to="1149818606"/>
    <trip id="327" depart="81.75" from="331896714#0" to="1023353087"/>
    <trip id="328" depart="82.00" from="-183320482#1" to="229363521#3"/>
    <trip id="329" depart="82.25" from="-132148713" to="-25301462#1"/>
    <trip id="330" depart="82.50" from="228375340#0" to="-335357498#2"/>
    <trip id="331" depart="82.75" from="95033337#1" to="-229239664#1"/>
    <trip id="332" depart="83.00" from="329579416" to="229129793#3"/>
    <trip id="333" depart="83.25" from="329593813" to="-329254825#2"/>
    <trip id="334" depart="83.50" from="183430810#2" to="1121889988"/>
    <trip id="335" depart="83.75" from="110430939#0" to="429820455"/>
    <trip id="336" depart="84.00" from="95033320#1" to="-338680049"/>
    <trip id="337" depart="84.25" from="23639778" to="229139532"/>
    <trip id="338" depart="84.50" from="312655799" to="91387177#2"/>
    <trip id="339" depart="84.75" from="-28351461#3" to="-320693176#0"/>
    <trip id="340" depart="85.00" from="25302313#0" to="-25302628#0"/>
    <trip id="341" depart="85.25" from="-24827425#8" to="-183699886#1"/>
    <trip id="342" depart="85.50" from="-1032943203" to="1121889988"/>
    <trip id="343" depart="85.75" from="229242580#0" to="-332738618"/>
    <trip id="344" depart="86.00" from="-304094173" to="25542639#1"/>
    <trip id="345" depart="86.25" from="303179756" to="1138562705"/>
    <trip id="346" depart="86.50" from="28351006#2" to="904287742"/>
    <trip id="347" depart="86.75" from="329591968#1" to="229361327"/>
    <trip id="348" depart="87.00" from="25302477#4" to="91227656#5"/>
    <trip id="349" depart="87.25" from="1066536034#0" to="183819441"/>
    <trip id="350" depart="87.50" from="24827560#3" to="827491212#4"/>
    <trip id="351" depart="87.75" from="332620678#0" to="-183695446#1"/>
    <trip id="352" depart="88.00" from="-241036883#2" to="-37278648#0"/>
    <trip id="353" depart="88.25" from="320751973" to="228362609#0"/>
    <trip id="354" depart="88.50" from="-331413084" to="-229368397#1"/>
    <trip id="355" depart="88.75" from="28351102#4" to="25512800#8"/>
    <trip id="356" depart="89.00" from="91286782#0" to="132277820#1"/>
    <trip id="357" depart="89.25" from="153665403#0" to="-183845213#1"/>
    <trip id="358" depart="89.50" from="-1144612919" to="110321109#3"/>
    <trip id="359" depart="89.75" from="-485077714" to="-329592075#1"/>
    <trip id="360" depart="90.00" from="-183743444#1" to="91387335#4"/>
    <trip id="361" depart="90.25" from="332896592#4" to="228370166#5"/>
    <trip id="362" depart="90.50" from="91387178#1" to="gneE5"/>
    <trip id="363" depart="90.75" from="25539025#7" to="-330939702"/>
    <trip id="364" depart="91.00" from="-1145531358#0" to="312194207#1"/>
    <trip id="365" depart="91.25" from="1145532493" to="241036887#4"/>
    <trip id="366" depart="91.50" from="83700038#1" to="-303184877#3"/>
    <trip id="367" depart="91.75" from="229139526#0" to="229371013"/>
    <trip id="368" depart="92.00" from="149052537#3" to="-228351371#0"/>
    <trip id="369" depart="92.25" from="-87416007#1" to="-695775278#1"/>
    <trip id="370" depart="92.50" from="255361388" to="42141138#5"/>
    <trip id="371" depart="92.75" from="-543644639" to="25302999#1"/>
    <trip id="372" depart="93.00" from="-331410847#1" to="91387171"/>
    <trip id="373" depart="93.25" from="330944065#1" to="183827445"/>
    <trip id="374" depart="93.50" from="1115308625" to="-41407590#1"/>
    <trip id="375" depart="93.75" from="-485286937" to="91397297#0"/>
    <trip id="376" depart="94.00" from="-977630193#2" to="175518808#1"/>
    <trip id="377" depart="94.25" from="95033319#0" to="24806146#5"/>
    <trip id="378" depart="94.50" from="185138727#2" to="1066536032"/>
    <trip id="379" depart="94.75" from="-25302131#0" to="-91387223#4"/>
    <trip id="380" depart="95.00" from="322208926" to="229361446#0"/>
    <trip id="381" depart="95.25" from="329254825#0" to="-304096276#0"/>
    <trip id="382" depart="95.50" from="222737047" to="91227526#1"/>
    <trip id="383" depart="95.75" from="110321045#0" to="25512786#1"/>
    <trip id="384" depart="96.00" from="-228376424" to="91397362#1"/>
    <trip id="385" depart="96.25" from="23236879" to="-329590348#0"/>
    <trip id="386" depart="96.50" from="-229371011" to="183827445"/>
    <trip id="387" depart="96.75" from="228351372" to="-228360704#0"/>
    <trip id="388" depart="97.00" from="95033333#0" to="85390497#0"/>
    <trip id="389" depart="97.25" from="112888217#0" to="-229239662#0"/>
    <trip id="390" depart="97.50" from="332735438" to="132277814"/>
    <trip id="391" depart="97.75" from="303589412" to="153879745"/>
    <trip id="392" depart="98.00" from="-329636076" to="332688232"/>
    <trip id="393" depart="98.25" from="92410047#4" to="-329590834#0"/>
    <trip id="394" depart="98.50" from="228351369#0" to="-932881558#0"/>
    <trip id="395" depart="98.75" from="87416011#4" to="153677551#8"/>
    <trip id="396" depart="99.00" from="485302431#0" to="44637846#3"/>
    <trip id="397" depart="99.25" from="-329652636#1" to="329591046"/>
    <trip id="398" depart="99.50" from="1032070635" to="91227656#5"/>
    <trip id="399" depart="99.75" from="183319306" to="331405919#1"/>
    <trip id="400" depart="100.00" from="-330939297#3" to="-333291096"/>
    <trip id="401" depart="100.25" from="229236710#4" to="gneE0"/>
    <trip id="402" depart="100.50" from="132277817#1" to="-25301430#5"/>
    <trip id="403" depart="100.75" from="183844924#0" to="-91227641#0"/>
    <trip id="404" depart="101.00" from="228351371#1" to="183744407#3"/>
    <trip id="405" depart="101.25" from="1119891201#0" to="-485286936"/>
    <trip id="406" depart="101.50" from="-25302227#0" to="25512780#0"/>
    <trip id="407" depart="101.75" from="228506939#4" to="-329584054"/>
    <trip id="408" depart="102.00" from="329588017" to="-132270047"/>
    <trip id="409" depart="102.25" from="320532949" to="25542617"/>
    <trip id="410" depart="102.50" from="330940893" to="-95033319#0"/>
    <trip id="411" depart="102.75" from="25302999#0" to="331405919#2"/>
    <trip id="412" depart="103.00" from="92410057" to="132277805"/>
    <trip id="413" depart="103.25" from="-1140763045" to="149052538#1"/>
    <trip id="414" depart="103.50" from="229238482#1" to="484937988"/>
    <trip id="415" depart="103.75" from="484922256" to="1112371612#1"/>
    <trip id="416" depart="104.00" from="183695462#5" to="1138629454"/>