<?xml version="1.0" encoding="UTF-8"?>
<!-- generated on 2026-05-10 15:51:22.445027 by randomTrips.py v1.11.0-0000000000
  options: -n istanbul-v1.net.xml -o random_traffic_dense.trips.xml <doubleminus>begin 0 <doubleminus>end 2500 <doubleminus>period 0.15 <doubleminus>fringe-factor 5
-->
<routes xmlns:xsi="http://www.w3.org/2001/XMLSchema-instance" xsi:noNamespaceSchemaLocation="http://sumo.dlr.de/xsd/routes_file.xsd">
    <trip id="0" depart="0.00" from="24806693#1" to="-112888215#1"/>
    <trip id="1" depart="0.15" from="-329647425#2" to="-322208929#2"/>
    <trip id="2" depart="0.30" from="311265900#2" to="24827560#3"/>
    <trip id="3" depart="0.45" from="61011825#2" to="-215266536"/>
    <trip id="4" depart="0.60" from="1044159494#0" to="-1140696576"/>
    <trip id="5" depart="0.75" from="-303186569" to="153665531#3"/>
    <trip id="6" depart="0.90" from="-1138196368" to="-303758277#1"/>
    <trip id="7" depart="1.05" from="24830098#0" to="183819442#1"/>
    <trip id="8" depart="1.20" from="-303588578#1" to="228506944"/>
    <trip id="9" depart="1.35" from="330939297#5" to="-103456079#1"/>
    <trip id="10" depart="1.50" from="330106626#2" to="25512786#1"/>
    <trip id="11" depart="1.65" from="-745042248" to="-25302477#3"/>
    <trip id="12" depart="1.80" from="91387228#3" to="-825886232#4"/>
    <trip id="13" depart="1.95" from="-183744407#2" to="-228370151#0"/>
    <trip id="14" depart="2.10" from="338680049" to="229127967#1"/>
    <trip id="15" depart="2.25" from="330109792" to="303184873#2"/>
    <trip id="16" depart="2.40" from="183820655#2" to="91397362#1"/>
    <trip id="17" depart="2.55" from="-91397195#1" to="183845272"/>
    <trip id="18" depart="2.70" from="332620971#0" to="229238494#3"/>
    <trip id="19" depart="2.85" from="42141138#1" to="228374158#1"/>
    <trip id="20" depart="3.00" from="303184877#3" to="-132277818#3"/>
    <trip id="21" depart="3.15" from="-303758277#0" to="-332691985#1"/>
    <trip id="22" depart="3.30" from="-183428993#0" to="-329583949#0"/>
    <trip id="23" depart="3.45" from="-209318553#0" to="-331866603"/>
    <trip id="24" depart="3.60" from="24806541#0" to="-91387262#1"/>
    <trip id="25" depart="3.75" from="-91387216#3" to="-313763069#0"/>
    <trip id="26" depart="3.90" from="-329593166" to="91227672#1"/>
    <trip id="27" depart="4.05" from="24827570#0" to="229139531#2"/>
    <trip id="28" depart="4.20" from="-24805819" to="303179755"/>
    <trip id="29" depart="4.35" from="-23639603#1" to="-91397396#1"/>
    <trip id="30" depart="4.50" from="95033320#0" to="23556647#1"/>
    <trip id="31" depart="4.65" from="228368108#0" to="25301689#0"/>
    <trip id="32" depart="4.80" from="334610598" to="329580320#4"/>
    <trip id="33" depart="4.95" from="-304074914#0" to="-1140698904"/>
    <trip id="34" depart="5.10" from="-41407587#2" to="-330939297#0"/>
    <trip id="35" depart="5.25" from="-28584994#4" to="91286799#3"/>
    <trip id="36" depart="5.40" from="485179713" to="-41407590#1"/>
    <trip id="37" depart="5.55" from="25301462#6" to="-gneE1"/>
    <trip id="38" depart="5.70" from="83477389#2" to="1139094537"/>
    <trip id="39" depart="5.85" from="-329591910#2" to="-329591319#1"/>
    <trip id="40" depart="6.00" from="228374133#1" to="-330026536#0"/>
    <trip id="41" depart="6.15" from="229130735" to="695775282#1"/>
    <trip id="42" depart="6.30" from="-95033333#1" to="-321082408"/>
    <trip id="43" depart="6.45" from="995022795#2" to="165484147"/>
    <trip id="44" depart="6.60" from="-183743444#1" to="-149052537#0"/>
    <trip id="45" depart="6.75" from="-228362603#5" to="229361924#2"/>
    <trip id="46" depart="6.90" from="329595105#1" to="1100726592"/>
    <trip id="47" depart="7.05" from="-152336173#0" to="-92410040"/>
    <trip id="48" depart="7.20" from="977630192#0" to="183430260#2"/>
    <trip id="49" depart="7.35" from="91397307" to="432472185"/>
    <trip id="50" depart="7.50" from="-1100726593" to="28584994#1"/>
    <trip id="51" depart="7.65" from="25569551#0" to="183696575"/>
    <trip id="52" depart="7.80" from="-329593051#1" to="23639410#10"/>
    <trip id="53" depart="7.95" from="-228368108#0" to="110430942#0"/>
    <trip id="54" depart="8.10" from="1113579989" to="91387216#2"/>
    <trip id="55" depart="8.25" from="485077714" to="-330026536#0"/>
    <trip id="56" depart="8.40" from="165576319#0" to="-303179754#1"/>
    <trip id="57" depart="8.55" from="827063325#0.102" to="485077714"/>
    <trip id="58" depart="8.70" from="-332620541" to="23276966#0"/>
    <trip id="59" depart="8.85" from="23236898" to="-25302119#3"/>
    <trip id="60" depart="9.00" from="329261625" to="183743031#0"/>
    <trip id="61" depart="9.15" from="329590397" to="183430429#0"/>
    <trip id="62" depart="9.30" from="-1011998937#3" to="-485312346#0"/>
    <trip id="63" depart="9.45" from="-1112371607#0" to="91227527#3"/>
    <trip id="64" depart="9.60" from="485299728#1" to="332219146"/>
    <trip id="65" depart="9.75" from="-335354542#2" to="-180536976#2"/>
    <trip id="66" depart="9.90" from="485297912#1" to="91387176#1"/>
    <trip id="67" depart="10.05" from="-183695462#0" to="127195812#5"/>
    <trip id="68" depart="10.20" from="-165717647#2" to="317270969"/>
    <trip id="69" depart="10.35" from="329581025#1" to="-23639533#0"/>
    <trip id="70" depart="10.50" from="1150725755#0" to="183827317#1"/>
    <trip id="71" depart="10.65" from="-329591968#0" to="485287894"/>
    <trip id="72" depart="10.80" from="1057491047" to="-320693182"/>
    <trip id="73" depart="10.95" from="183845213#0" to="303184876"/>
    <trip id="74" depart="11.10" from="-25542621#4" to="-41407581#2"/>
    <trip id="75" depart="11.25" from="95033345#1" to="241036884#0"/>
    <trip id="76" depart="11.40" from="110321045#0" to="183319560#1"/>
    <trip id="77" depart="11.55" from="-228376423#1" to="-329251596#4"/>
    <trip id="78" depart="11.70" from="-695775286" to="228506941#0"/>
    <trip id="79" depart="11.85" from="-304076228#2" to="-321205348"/>
    <trip id="80" depart="12.00" from="-167639921#1" to="229367549#3"/>
    <trip id="81" depart="12.15" from="-303765149" to="809580125#1-AddedOnRampEdge"/>
    <trip id="82" depart="12.30" from="41407590#0" to="-183695145#0"/>
    <trip id="83" depart="12.45" from="-320693178" to="24826715#3"/>
    <trip id="84" depart="12.60" from="-303184873#2" to="-23639623#1"/>
    <trip id="85" depart="12.75" from="91227656#2" to="228368129#1"/>
    <trip id="86" depart="12.90" from="1148601709#0" to="329586442#4"/>
    <trip id="87" depart="13.05" from="330109792" to="-303589409"/>
    <trip id="88" depart="13.20" from="-183845412#0" to="110321102#1"/>
    <trip id="89" depart="13.35" from="1062193974#0" to="1144580021"/>
    <trip id="90" depart="13.50" from="304094178#0" to="24827503#1"/>
    <trip id="91" depart="13.65" from="931990075" to="-228374133#1"/>
    <trip id="92" depart="13.80" from="-95033345#1" to="-85391272"/>
    <trip id="93" depart="13.95" from="42141138#0" to="-329591796#3"/>
    <trip id="94" depart="14.10" from="-25302511#1" to="1120738047"/>
    <trip id="95" depart="14.25" from="1044159494#0" to="-331868344#0"/>
    <trip id="96" depart="14.40" from="-329579416" to="887295434"/>
    <trip id="97" depart="14.55" from="110430939#2" to="432870062#3"/>
    <trip id="98" depart="14.70" from="227457012#1" to="-153665574#1"/>
    <trip id="99" depart="14.85" from="gneE3" to="332895300"/>
    <trip id="100" depart="15.00" from="91397283#2" to="90888399#0"/>
    <trip id="101" depart="15.15" from="35263050#1" to="-25542885#1"/>
    <trip id="102" depart="15.30" from="132270033#2" to="-320693186"/>
    <trip id="103" depart="15.45" from="-95033338#2" to="-183278574#0"/>
    <trip id="104" depart="15.60" from="-91397220#1" to="941369214#0"/>
    <trip id="105" depart="15.75" from="-329591968#1" to="329586442#0"/>
    <trip id="106" depart="15.90" from="1115520572" to="1101578759#0"/>
    <trip id="107" depart="16.05" from="91387228#3" to="977630193#2"/>
    <trip id="108" depart="16.20" from="228362603#3" to="28351464#2"/>
    <trip id="109" depart="16.35" from="-229362140#0" to="-333289157"/>
    <trip id="110" depart="16.50" from="91397283#0" to="228376421"/>
    <trip id="111" depart="16.65" from="185138727#0" to="304076228#1"/>
    <trip id="112" depart="16.80" from="-132270044#2" to="228500158"/>
    <trip id="113" depart="16.95" from="167639921#0" to="389439195#0"/>
    <trip id="114" depart="17.10" from="-229370588" to="91387325#1"/>
    <trip id="115" depart="17.25" from="-183428993#2" to="-303186571#4"/>
    <trip id="116" depart="17.40" from="229357948#0" to="24827552#2"/>
    <trip id="117" depart="17.55" from="-312572465#2" to="-229357941"/>
    <trip id="118" depart="17.70" from="561590398#0-AddedOffRampEdge" to="-329591184"/>
    <trip id="119" depart="17.85" from="229249558#1" to="229239664#0"/>
    <trip id="120" depart="18.00" from="104061367#1" to="228486084#1"/>
    <trip id="121" depart="18.15" from="183430811#0" to="91227664#1"/>
    <trip id="122" depart="18.30" from="-261188322" to="28351102#2"/>
    <trip id="123" depart="18.45" from="-320693184#2" to="-gneE1"/>
    <trip id="124" depart="18.60" from="25539025#2" to="-334610518"/>
    <trip id="125" depart="18.75" from="-41407589" to="304096274"/>
    <trip id="126" depart="18.90" from="-180536976#2" to="1138629663"/>
    <trip id="127" depart="19.05" from="gneE1" to="977630193#2"/>
    <trip id="128" depart="19.20" from="-183278574#0" to="-320693184#3"/>
    <trip id="129" depart="19.35" from="-329591968#1" to="91227656#3"/>
    <trip id="130" depart="19.50" from="485315877#0" to="5170335#4"/>
    <trip id="131" depart="19.65" from="-91387215" to="-25302890#0"/>
    <trip id="132" depart="19.80" from="332895300" to="25539035#1"/>
    <trip id="133" depart="19.95" from="23276957" to="95033317#1"/>
    <trip id="134" depart="20.10" from="25301430#5" to="-1043350966"/>
    <trip id="135" depart="20.25" from="331683839#1" to="-333293077#0"/>
    <trip id="136" depart="20.40" from="25302890#1" to="91264115"/>
    <trip id="137" depart="20.55" from="-229124907" to="-229238480#1"/>
    <trip id="138" depart="20.70" from="-228359825" to="183847453#0"/>
    <trip id="139" depart="20.85" from="-329596762#3" to="229127975#1"/>
    <trip id="140" depart="21.00" from="303724001#1" to="-304096276#0"/>
    <trip id="141" depart="21.15" from="24806208#6" to="-330026540#1"/>
    <trip id="142" depart="21.30" from="132277810#0" to="809580125#1"/>
    <trip id="143" depart="21.45" from="338478873#0" to="-228352376#2"/>
    <trip id="144" depart="21.60" from="1062193974#0" to="-331866399"/>
    <trip id="145" depart="21.75" from="-103456074" to="329257004"/>
    <trip id="146" depart="21.90" from="24806567#4" to="-329653583#0"/>
    <trip id="147" depart="22.05" from="312655800#1" to="183845213#0"/>
    <trip id="148" depart="22.20" from="109156259#0" to="-1089138650"/>
    <trip id="149" depart="22.35" from="-183321667#3" to="55218314#1"/>
    <trip id="150" depart="22.50" from="695775280" to="183819915#3"/>
    <trip id="151" depart="22.65" from="332896591#0" to="228379158"/>
    <trip id="152" depart="22.80" from="-229239661#0" to="-23015067#3"/>
    <trip id="153" depart="22.95" from="-335357498#0" to="711295528"/>
    <trip id="154" depart="23.10" from="329597629#0" to="432453755"/>
    <trip id="155" depart="23.25" from="692988380#0" to="-317995608#1"/>
    <trip id="156" depart="23.40" from="-329579189#1" to="-228500155"/>
    <trip id="157" depart="23.55" from="329590601" to="561607212#1"/>
    <trip id="158" depart="23.70" from="-995022795#0" to="229242578"/>
    <trip id="159" depart="23.85" from="-229361927" to="91227534#3"/>
    <trip id="160" depart="24.00" from="429506233#3" to="923050534"/>
    <trip id="161" depart="24.15" from="330939891" to="543644639"/>
    <trip id="162" depart="24.30" from="-112888215#1" to="303588576#1"/>
    <trip id="163" depart="24.45" from="-61011825#2" to="91227554#3"/>
    <trip id="164" depart="24.60" from="330026536#0" to="44637846#3"/>
    <trip id="165" depart="24.75" from="330939891" to="-330109792"/>
    <trip id="166" depart="24.90" from="329591910#2" to="-229124892#1"/>
    <trip id="167" depart="25.05" from="469405656" to="42143402#2"/>
    <trip id="168" depart="25.20" from="-303724001#1" to="330939298"/>
    <trip id="169" depart="25.35" from="112392945#4" to="-338478876"/>
    <trip id="170" depart="25.50" from="329596762#3" to="-329260403#0"/>
    <trip id="171" depart="25.65" from="-1120732927#0" to="-303724001#1"/>
    <trip id="172" depart="25.80" from="-52090097#5" to="44637846#5"/>
    <trip id="173" depart="25.95" from="91397245#1" to="-331868631"/>
    <trip id="174" depart="26.10" from="24826715#2" to="1022125773#4"/>
    <trip id="175" depart="26.25" from="92410057" to="183696524#0"/>
    <trip id="176" depart="26.40" from="91264113" to="-229238480#1"/>
    <trip id="177" depart="26.55" from="91397292#4" to="-303179754#1"/>
    <trip id="178" depart="26.70" from="91387335#1" to="-330099609"/>
    <trip id="179" depart="26.85" from="-228361005" to="110430941"/>
    <trip id="180" depart="27.00" from="304090710" to="-41407587#3"/>
    <trip id="181" depart="27.15" from="229998150#0" to="165717647#0"/>
    <trip id="182" depart="27.30" from="-91397297#0" to="228374153#2"/>
    <trip id="183" depart="27.45" from="-329585272" to="25562609#0"/>
    <trip id="184" depart="27.60" from="-102637270#1" to="90888302"/>
    <trip id="185" depart="27.75" from="183844924#0" to="28351554#2"/>
    <trip id="186" depart="27.90" from="31358134#1" to="24827425#4"/>
    <trip id="187" depart="28.05" from="-91387177#3" to="-183430810#3"/>
    <trip id="188" depart="28.20" from="25428550#0" to="-61671985#0"/>
    <trip id="189" depart="28.35" from="-377762568" to="361636818#0"/>
    <trip id="190" depart="28.50" from="303752948" to="-334610518"/>
    <trip id="191" depart="28.65" from="-338478873#1" to="104061367#1"/>
    <trip id="192" depart="28.80" from="-95033345#0" to="-333289156#0"/>
    <trip id="193" depart="28.95" from="-228506934#5" to="1100670780"/>
    <trip id="194" depart="29.10" from="91264144" to="24827570#0"/>
    <trip id="195" depart="29.25" from="695775279#4" to="229238479"/>
    <trip id="196" depart="29.40" from="-332691985#0" to="183820682"/>
    <trip id="197" depart="29.55" from="-1011998937#2" to="-332620902#2"/>
    <trip id="198" depart="29.70" from="1100726588#1" to="228376423#3"/>
    <trip id="199" depart="29.85" from="25301462#2" to="1143875115"/>
    <trip id="200" depart="30.00" from="110430939#0" to="-320693186"/>
    <trip id="201" depart="30.15" from="1149816833" to="745042248"/>
    <trip id="202" depart="30.30" from="329597629#0" to="-261188331#0"/>
    <trip id="203" depart="30.45" from="-183695446#0" to="180536976#2"/>
    <trip id="204" depart="30.60" from="24806208#0" to="-747087375#0"/>
    <trip id="205" depart="30.75" from="331866603" to="304094179#0"/>
    <trip id="206" depart="30.90" from="25539026#0" to="-329251596#3"/>
    <trip id="207" depart="31.05" from="-25539035#1" to="-1120744774"/>
    <trip id="208" depart="31.20" from="-329254825#0" to="1148715589"/>
    <trip id="209" depart="31.35" from="361636818#3" to="-183695462#5"/>
    <trip id="210" depart="31.50" from="1031538186" to="229364622#0"/>
    <trip id="211" depart="31.65" from="-25428550#0" to="25512775#1"/>
    <trip id="212" depart="31.80" from="153665485#1" to="-329590834#1"/>
    <trip id="213" depart="31.95" from="25301488" to="-1033183794"/>
    <trip id="214" depart="32.10" from="320754702#1" to="329254825#4"/>
    <trip id="215" depart="32.25" from="-228359825" to="1101578763#5"/>
    <trip id="216" depart="32.40" from="-24827503#1" to="91387262#1"/>
    <trip id="217" depart="32.55" from="183428659#1" to="-153665531#4"/>
    <trip id="218" depart="32.70" from="-329269949" to="361636818#1"/>
    <trip id="219" depart="32.85" from="1120732985#0" to="329596762#1"/>
    <trip id="220" depart="33.00" from="25512778#0" to="95033319#2"/>
    <trip id="221" depart="33.15" from="229357948#2" to="91387210#2"/>
    <trip id="222" depart="33.30" from="61011821" to="229238471#0"/>
    <trip id="223" depart="33.45" from="303752947#0" to="153665531#0"/>
    <trip id="224" depart="33.60" from="332688519" to="183820682"/>
    <trip id="225" depart="33.75" from="669715186#6" to="303754580#1"/>
    <trip id="226" depart="33.90" from="1149844832" to="-329647425#0"/>
    <trip id="227" depart="34.05" from="-329261625" to="23236930#2"/>
    <trip id="228" depart="34.20" from="329581025#1" to="183321811"/>
    <trip id="229" depart="34.35" from="241036890#1" to="-331675334"/>
    <trip id="230" depart="34.50" from="-183420396#0" to="-332620901#0"/>
    <trip id="231" depart="34.65" from="-329596762#0" to="-484922256"/>
    <trip id="232" depart="34.80" from="183845412#0" to="-241036890#0"/>
    <trip id="233" depart="34.95" from="-304094173" to="25302999#1"/>
    <trip id="234" depart="35.10" from="303184883#1" to="-183425285"/>
    <trip id="235" depart="35.25" from="1011998935#0" to="183743445"/>
    <trip id="236" depart="35.40" from="1032943419" to="-308410541#1"/>
    <trip id="237" depart="35.55" from="1043350966" to="809580124"/>
    <trip id="238" depart="35.70" from="229130732#0" to="254966109#0"/>
    <trip id="239" depart="35.85" from="41407581#0" to="320827257#3"/>
    <trip id="240" depart="36.00" from="-91397230#0" to="-103456075#0"/>
    <trip id="241" depart="36.15" from="-907997521#0" to="304100729#4"/>
    <trip id="242" depart="36.30" from="377852711" to="91387216#0"/>
    <trip id="243" depart="36.45" from="104061367#0" to="304074925"/>
    <trip id="244" depart="36.60" from="215266536" to="229127965"/>
    <trip id="245" depart="36.75" from="-303588578#1" to="-321082409"/>
    <trip id="246" depart="36.90" from="1101798638" to="-1140694777"/>
    <trip id="247" depart="37.05" from="-69332556#1" to="24830098#1"/>
    <trip id="248" depart="37.20" from="-977630193#2" to="-25542617"/>
    <trip id="249" depart="37.35" from="1140698904" to="-23015067#4"/>
    <trip id="250" depart="37.50" from="241036882#6" to="-1138626773"/>
    <trip id="251" depart="37.65" from="-932881559" to="228359825"/>
    <trip id="252" depart="37.80" from="-1138562705" to="23639533#1"/>
    <trip id="253" depart="37.95" from="-229127965" to="1140694911"/>
    <trip id="254" depart="38.10" from="-1150325795#1" to="-91397377"/>
    <trip id="255" depart="38.25" from="-290774758" to="-52090097#7"/>
    <trip id="256" depart="38.40" from="329257430#0" to="-91397377"/>
    <trip id="257" depart="38.55" from="320827256" to="332219146"/>
    <trip id="258" depart="38.70" from="-329583726" to="-183847453#1"/>
    <trip id="259" depart="38.85" from="-1112371607#0" to="183743031#0"/>
    <trip id="260" depart="39.00" from="gneE7" to="-91286782#0"/>
    <trip id="261" depart="39.15" from="251548723#0" to="329583949#1"/>
    <trip id="262" depart="39.30" from="25300871#3" to="304103131#1"/>
    <trip id="263" depart="39.45" from="91387177#1" to="-303759903#0"/>
    <trip id="264" depart="39.60" from="-1112371616" to="-25302119#0"/>
    <trip id="265" depart="39.75" from="-228506934#0" to="24826872#0"/>
    <trip id="266" depart="39.90" from="228376421" to="-320827257#1"/>
    <trip id="267" depart="40.05" from="303179748#0" to="322208929#0"/>
    <trip id="268" depart="40.20" from="-241036887#0" to="229130738"/>
    <trip id="269" depart="40.35" from="320693186" to="-229238464#2"/>
    <trip id="270" depart="40.50" from="331867137#1" to="91397226#0"/>
    <trip id="271" depart="40.65" from="-228361005" to="-112888215#5"/>
    <trip id="272" depart="40.80" from="-361636818#3" to="24827570#1"/>
    <trip id="273" depart="40.95" from="91387235#0" to="1011998935#0"/>
    <trip id="274" depart="41.10" from="303589409" to="-183743071"/>
    <trip id="275" depart="41.25" from="28351464#1" to="229361924#1"/>
    <trip id="276" depart="41.40" from="-215266550#0" to="329262548"/>
    <trip id="277" depart="41.55" from="371124136#0" to="229124908#1"/>
    <trip id="278" depart="41.70" from="-228376423#2" to="932881558#1"/>
    <trip id="279" depart="41.85" from="329590913#0" to="-91227664#2"/>
    <trip id="280" depart="42.00" from="109163525" to="-91397230#2"/>
    <trip id="281" depart="42.15" from="183278574#0" to="-87416000#1"/>
    <trip id="282" depart="42.30" from="361636818#2" to="331679526#0"/>
    <trip id="283" depart="42.45" from="-228352376#2" to="91387325#1"/>
    <trip id="284" depart="42.60" from="24806305#3" to="331872531"/>
    <trip id="285" depart="42.75" from="303186566#0" to="110430942#4"/>
    <trip id="286" depart="42.90" from="304103135" to="91397230#0"/>
    <trip id="287" depart="43.05" from="-329595727#1" to="329653125"/>
    <trip id="288" depart="43.20" from="183844656#2" to="1164913794#0"/>
    <trip id="289" depart="43.35" from="1101798637" to="303184878"/>
    <trip id="290" depart="43.50" from="-329594071#0" to="374051237#3"/>
    <trip id="291" depart="43.65" from="332688519" to="-215266530"/>
    <trip id="292" depart="43.80" from="485315877#1" to="-329590834#1"/>
    <trip id="293" depart="43.95" from="1140694777" to="229236710#4"/>
    <trip id="294" depart="44.10" from="-91397220#1" to="-1140694777"/>
    <trip id="295" depart="44.25" from="37278621#0" to="-303184878"/>
    <trip id="296" depart="44.40" from="-303179748#0" to="329595014#1"/>
    <trip id="297" depart="44.55" from="-745042248" to="52090097#6"/>
    <trip id="298" depart="44.70" from="303179752#0" to="-331866399"/>
    <trip id="299" depart="44.85" from="-109156259#3" to="91387177#5"/>
    <trip id="300" depart="45.00" from="-183695446#4" to="28351554#5"/>
    <trip id="301" depart="45.15" from="132277810#1" to="312573268#0"/>
    <trip id="302" depart="45.30" from="28351464#1" to="23639623#1"/>
    <trip id="303" depart="45.45" from="136456162#0" to="329591796#1"/>
    <trip id="304" depart="45.60" from="-183749132" to="-322208926"/>
    <trip id="305" depart="45.75" from="28351554#2" to="-361636818#2"/>
    <trip id="306" depart="45.90" from="229127968" to="1147323572"/>
    <trip id="307" depart="46.05" from="183743988#0" to="1101583548#0"/>
    <trip id="308" depart="46.20" from="320693180" to="-62730202#4"/>
    <trip id="309" depart="46.35" from="303179756" to="-330940893"/>
    <trip id="310" depart="46.50" from="-329583453" to="-229360145"/>
    <trip id="311" depart="46.65" from="-25302999#3" to="-229249558#1"/>
    <trip id="312" depart="46.80" from="183820655#0" to="320693178"/>
    <trip id="313" depart="46.95" from="-25301888#1" to="-320754702#0"/>
    <trip id="314" depart="47.10" from="132270019" to="290731791#0"/>
    <trip id="315" depart="47.25" from="92410029#1" to="183421401#1"/>
    <trip id="316" depart="47.40" from="-330939297#5" to="-228376435"/>
    <trip id="317" depart="47.55" from="-25401137#1" to="-329260403#0"/>
    <trip id="318" depart="47.70" from="-25300937" to="-110321102#2"/>
    <trip id="319" depart="47.85" from="183819915#0" to="-331410847#0"/>
    <trip id="320" depart="48.00" from="91397365" to="183847453#0"/>
    <trip id="321" depart="48.15" from="290731792#0" to="-23015067#0"/>
    <trip id="322" depart="48.30" from="443790676#3" to="132270011#1"/>
    <trip id="323" depart="48.45" from="469405658#1" to="228370162#0"/>
    <trip id="324" depart="48.60" from="1145018936" to="1112371612#4"/>
    <trip id="325" depart="48.75" from="-25301689#1" to="-153677542"/>
    <trip id="326" depart="48.90" from="91286656#0" to="1149818606"/>
    <trip id="327" depart="49.05" from="331896714#0" to="1023353087"/>
    <trip id="328" depart="49.20" from="-183320482#1" to="229363521#3"/>
    <trip id="329" depart="49.35" from="-132148713" to="-25301462#1"/>
    <trip id="330" depart="49.50" from="228375340#0" to="-335357498#2"/>
    <trip id="331" depart="49.65" from="95033337#1" to="-229239664#1"/>
    <trip id="332" depart="49.80" from="329579416" to="229129793#3"/>
    <trip id="333" depart="49.95" from="329593813" to="-329254825#2"/>
    <trip id="334" depart="50.10" from="183430810#2" to="1121889988"/>
    <trip id="335" depart="50.25" from="110430939#0" to="429820455"/>
    <trip id="336" depart="50.40" from="95033320#1" to="-338680049"/>
    <trip id="337" depart="50.55" from="23639778" to="229139532"/>
    <trip id="338" depart="50.70" from="312655799" to="91387177#2"/>
    <trip id="339" depart="50.85" from="-28351461#3" to="-320693176#0"/>
    <trip id="340" depart="51.00" from="25302313#0" to="-25302628#0"/>
    <trip id="341" depart="51.15" from="-24827425#8" to="-183699886#1"/>
    <trip id="342" depart="51.30" from="-1032943203" to="1121889988"/>
    <trip id="343" depart="51.45" from="229242580#0" to="-332738618"/>
    <trip id="344" depart="51.60" from="-304094173" to="25542639#1"/>
    <trip id="345" depart="51.75" from="303179756" to="1138562705"/>
    <trip id="346" depart="51.90" from="28351006#2" to="904287742"/>
    <trip id="347" depart="52.05" from="329591968#1" to="229361327"/>
    <trip id="348" depart="52.20" from="25302477#4" to="91227656#5"/>
    <trip id="349" depart="52.35" from="1066536034#0" to="183819441"/>
    <trip id="350" depart="52.50" from="24827560#3" to="827491212#4"/>
    <trip id="351" depart="52.65" from="332620678#0" to="-183695446#1"/>
    <trip id="352" depart="52.80" from="-241036883#2" to="-37278648#0"/>
    <trip id="353" depart="52.95" from="320751973" to="228362609#0"/>
    <trip id="354" depart="53.10" from="-331413084" to="-229368397#1"/>
    <trip id="355" depart="53.25" from="28351102#4" to="25512800#8"/>
    <trip id="356" depart="53.40" from="91286782#0" to="132277820#1"/>
    <trip id="357" depart="53.55" from="153665403#0" to="-183845213#1"/>
    <trip id="358" depart="53.70" from="-1144612919" to="110321109#3"/>
    <trip id="359" depart="53.85" from="-485077714" to="-329592075#1"/>
    <trip id="360" depart="54.00" from="-183743444#1" to="91387335#4"/>
    <trip id="361" depart="54.15" from="332896592#4" to="228370166#5"/>
    <trip id="362" depart="54.30" from="91387178#1" to="gneE5"/>
    <trip id="363" depart="54.45" from="25539025#7" to="-330939702"/>
    <trip id="364" depart="54.60" from="-1145531358#0" to="312194207#1"/>
    <trip id="365" depart="54.75" from="1145532493" to="241036887#4"/>
    <trip id="366" depart="54.90" from="83700038#1" to="-303184877#3"/>
    <trip id="367" depart="55.05" from="229139526#0" to="229371013"/>
    <trip id="368" depart="55.20" from="149052537#3" to="-228351371#0"/>
    <trip id="369" depart="55.35" from="-87416007#1" to="-695775278#1"/>
    <trip id="370" depart="55.50" from="255361388" to="42141138#5"/>
    <trip id="371" depart="55.65" from="-543644639" to="25302999#1"/>
    <trip id="372" depart="55.80" from="-331410847#1" to="91387171"/>
    <trip id="373" depart="55.95" from="330944065#1" to="183827445"/>
    <trip id="374" depart="56.10" from="1115308625" to="-41407590#1"/>
    <trip id="375" depart="56.25" from="-485286937" to="91397297#0"/>
    <trip id="376" depart="56.40" from="-977630193#2" to="175518808#1"/>
    <trip id="377" depart="56.55" from="95033319#0" to="24806146#5"/>
    <trip id="378" depart="56.70" from="185138727#2" to="1066536032"/>
    <trip id="379" depart="56.85" from="-25302131#0" to="-91387223#4"/>
    <trip id="380" depart="57.00" from="322208926" to="229361446#0"/>
    <trip id="381" depart="57.15" from="329254825#0" to="-304096276#0"/>
    <trip id="382" depart="57.30" from="222737047" to="91227526#1"/>
    <trip id="383" depart="57.45" from="110321045#0" to="25512786#1"/>
    <trip id="384" depart="57.60" from="-228376424" to="91397362#1"/>
    <trip id="385" depart="57.75" from="23236879" to="-329590348#0"/>
    <trip id="386" depart="57.90" from="-229371011" to="183827445"/>
    <trip id="387" depart="58.05" from="228351372" to="-228360704#0"/>
    <trip id="388" depart="58.20" from="95033333#0" to="85390497#0"/>
    <trip id="389" depart="58.35" from="112888217#0" to="-229239662#0"/>
    <trip id="390" depart="58.50" from="332735438" to="132277814"/>
    <trip id="391" depart="58.65" from="303589412" to="153879745"/>
    <trip id="392" depart="58.80" from="-329636076" to="332688232"/>
    <trip id="393" depart="58.95" from="92410047#4" to="-329590834#0"/>
    <trip id="394" depart="59.10" from="228351369#0" to="-932881558#0"/>
    <trip id="395" depart="59.25" from="87416011#4" to="153677551#8"/>
    <trip id="396" depart="59.40" from="485302431#0" to="44637846#3"/>
    <trip id="397" depart="59.55" from="-329652636#1" to="329591046"/>
    <trip id="398" depart="59.70" from="1032070635" to="91227656#5"/>
    <trip id="399" depart="59.85" from="183319306" to="331405919#1"/>
    <trip id="400" depart="60.00" from="-330939297#3" to="-333291096"/>
    <trip id="401" depart="60.15" from="229236710#4" to="gneE0"/>
    <trip id="402" depart="60.30" from="132277817#1" to="-25301430#5"/>
    <trip id="403" depart="60.45" from="183844924#0" to="-91227641#0"/>
    <trip id="404" depart="60.60" from="228351371#1" to="183744407#3"/>
    <trip id="405" depart="60.75" from="1119891201#0" to="-485286936"/>
    <trip id="406" depart="60.90" from="-25302227#0" to="25512780#0"/>
    <trip id="407" depart="61.05" from="228506939#4" to="-329584054"/>
    <trip id="408" depart="61.20" from="329588017" to="-132270047"/>
    <trip id="409" depart="61.35" from="320532949" to="25542617"/>
    <trip id="410" depart="61.50" from="330940893" to="-95033319#0"/>
    <trip id="411" depart="61.65" from="25302999#0" to="331405919#2"/>
    <trip id="412" depart="61.80" from="92410057" to="132277805"/>
    <trip id="413" depart="61.95" from="-1140763045" to="149052538#1"/>
    <trip id="414" depart="62.10" from="229238482#1" to="484937988"/>
    <trip id="415" depart="62.25" from="484922256" to="1112371612#1"/>
    <trip id="416" depart="62.40" from="183695462#5" to="1138629454"/>